
---------- Begin Simulation Statistics ----------
sim_seconds                                  0.001493                       # Number of seconds simulated
sim_ticks                                  1493199000                       # Number of ticks simulated
final_tick                                 1493199000                       # Number of ticks from beginning of simulation (restored from checkpoints and never reset)
sim_freq                                 1000000000000                       # Frequency of simulated ticks
host_inst_rate                                 330506                       # Simulator instruction rate (inst/s)
host_op_rate                                   644476                       # Simulator op (including micro ops) rate (op/s)
host_tick_rate                              648765200                       # Simulator tick rate (ticks/s)
host_mem_usage                                4507988                       # Number of bytes of host memory used
host_seconds                                     2.30                       # Real time elapsed on the host
sim_insts                                      760683                       # Number of instructions simulated
sim_ops                                       1483318                       # Number of ops (including micro ops) simulated
system.voltage_domain.voltage                       1                       # Voltage in Volts
system.clk_domain.clock                          1000                       # Clock period in ticks
system.mem_ctrls.bytes_read::ruby.dir_cntrl0       626688                       # Number of bytes read from this memory
system.mem_ctrls.bytes_read::total             626688                       # Number of bytes read from this memory
system.mem_ctrls.bytes_written::ruby.dir_cntrl0       564736                       # Number of bytes written to this memory
system.mem_ctrls.bytes_written::total          564736                       # Number of bytes written to this memory
system.mem_ctrls.num_reads::ruby.dir_cntrl0         4896                       # Number of read requests responded to by this memory
system.mem_ctrls.num_reads::total                4896                       # Number of read requests responded to by this memory
system.mem_ctrls.num_writes::ruby.dir_cntrl0         4412                       # Number of write requests responded to by this memory
system.mem_ctrls.num_writes::total               4412                       # Number of write requests responded to by this memory
system.mem_ctrls.bw_read::ruby.dir_cntrl0    419694897                       # Total read bandwidth from this memory (bytes/s)
system.mem_ctrls.bw_read::total             419694897                       # Total read bandwidth from this memory (bytes/s)
system.mem_ctrls.bw_write::ruby.dir_cntrl0    378205450                       # Write bandwidth from this memory (bytes/s)
system.mem_ctrls.bw_write::total            378205450                       # Write bandwidth from this memory (bytes/s)
system.mem_ctrls.bw_total::ruby.dir_cntrl0    797900347                       # Total bandwidth to/from this memory (bytes/s)
system.mem_ctrls.bw_total::total            797900347                       # Total bandwidth to/from this memory (bytes/s)
system.mem_ctrls.readReqs                        4896                       # Number of read requests accepted
system.mem_ctrls.writeReqs                       4412                       # Number of write requests accepted
system.mem_ctrls.readBursts                      9792                       # Number of DRAM read bursts, including those serviced by the write queue
system.mem_ctrls.writeBursts                     8824                       # Number of DRAM write bursts, including those merged in the write queue
system.mem_ctrls.bytesReadDRAM                 124672                       # Total number of bytes read from DRAM
system.mem_ctrls.bytesReadWrQ                  502016                       # Total number of bytes read from write queue
system.mem_ctrls.bytesWritten                   77568                       # Total number of bytes written to DRAM
system.mem_ctrls.bytesReadSys                  626688                       # Total read bytes from the system interface side
system.mem_ctrls.bytesWrittenSys               564736                       # Total written bytes from the system interface side
system.mem_ctrls.servicedByWrQ                   7844                       # Number of DRAM read bursts serviced by the write queue
system.mem_ctrls.mergedWrBursts                  7580                       # Number of DRAM write bursts merged with an existing one
system.mem_ctrls.neitherReadNorWriteReqs            0                       # Number of requests that are neither read nor write
system.mem_ctrls.perBankRdBursts::0                78                       # Per bank write bursts
system.mem_ctrls.perBankRdBursts::1                90                       # Per bank write bursts
system.mem_ctrls.perBankRdBursts::2               120                       # Per bank write bursts
system.mem_ctrls.perBankRdBursts::3               101                       # Per bank write bursts
system.mem_ctrls.perBankRdBursts::4                66                       # Per bank write bursts
system.mem_ctrls.perBankRdBursts::5                32                       # Per bank write bursts
system.mem_ctrls.perBankRdBursts::6               186                       # Per bank write bursts
system.mem_ctrls.perBankRdBursts::7               140                       # Per bank write bursts
system.mem_ctrls.perBankRdBursts::8               209                       # Per bank write bursts
system.mem_ctrls.perBankRdBursts::9               108                       # Per bank write bursts
system.mem_ctrls.perBankRdBursts::10              108                       # Per bank write bursts
system.mem_ctrls.perBankRdBursts::11              253                       # Per bank write bursts
system.mem_ctrls.perBankRdBursts::12              227                       # Per bank write bursts
system.mem_ctrls.perBankRdBursts::13              130                       # Per bank write bursts
system.mem_ctrls.perBankRdBursts::14               62                       # Per bank write bursts
system.mem_ctrls.perBankRdBursts::15               38                       # Per bank write bursts
system.mem_ctrls.perBankWrBursts::0                42                       # Per bank write bursts
system.mem_ctrls.perBankWrBursts::1                24                       # Per bank write bursts
system.mem_ctrls.perBankWrBursts::2                62                       # Per bank write bursts
system.mem_ctrls.perBankWrBursts::3                58                       # Per bank write bursts
system.mem_ctrls.perBankWrBursts::4                48                       # Per bank write bursts
system.mem_ctrls.perBankWrBursts::5                16                       # Per bank write bursts
system.mem_ctrls.perBankWrBursts::6               104                       # Per bank write bursts
system.mem_ctrls.perBankWrBursts::7               113                       # Per bank write bursts
system.mem_ctrls.perBankWrBursts::8               188                       # Per bank write bursts
system.mem_ctrls.perBankWrBursts::9                38                       # Per bank write bursts
system.mem_ctrls.perBankWrBursts::10               40                       # Per bank write bursts
system.mem_ctrls.perBankWrBursts::11              126                       # Per bank write bursts
system.mem_ctrls.perBankWrBursts::12              184                       # Per bank write bursts
system.mem_ctrls.perBankWrBursts::13               54                       # Per bank write bursts
system.mem_ctrls.perBankWrBursts::14               54                       # Per bank write bursts
system.mem_ctrls.perBankWrBursts::15               61                       # Per bank write bursts
system.mem_ctrls.numRdRetry                         0                       # Number of times read queue was full causing retry
system.mem_ctrls.numWrRetry                         0                       # Number of times write queue was full causing retry
system.mem_ctrls.totGap                    1493143500                       # Total gap between requests
system.mem_ctrls.readPktSize::0                     0                       # Read request sizes (log2)
system.mem_ctrls.readPktSize::1                     0                       # Read request sizes (log2)
system.mem_ctrls.readPktSize::2                     0                       # Read request sizes (log2)
system.mem_ctrls.readPktSize::3                     0                       # Read request sizes (log2)
system.mem_ctrls.readPktSize::4                     0                       # Read request sizes (log2)
system.mem_ctrls.readPktSize::5                     0                       # Read request sizes (log2)
system.mem_ctrls.readPktSize::6                  9792                       # Read request sizes (log2)
system.mem_ctrls.writePktSize::0                    0                       # Write request sizes (log2)
system.mem_ctrls.writePktSize::1                    0                       # Write request sizes (log2)
system.mem_ctrls.writePktSize::2                    0                       # Write request sizes (log2)
system.mem_ctrls.writePktSize::3                    0                       # Write request sizes (log2)
system.mem_ctrls.writePktSize::4                    0                       # Write request sizes (log2)
system.mem_ctrls.writePktSize::5                    0                       # Write request sizes (log2)
system.mem_ctrls.writePktSize::6                 8824                       # Write request sizes (log2)
system.mem_ctrls.rdQLenPdf::0                     950                       # What read queue length does an incoming req see
system.mem_ctrls.rdQLenPdf::1                     947                       # What read queue length does an incoming req see
system.mem_ctrls.rdQLenPdf::2                       5                       # What read queue length does an incoming req see
system.mem_ctrls.rdQLenPdf::3                       4                       # What read queue length does an incoming req see
system.mem_ctrls.rdQLenPdf::4                       4                       # What read queue length does an incoming req see
system.mem_ctrls.rdQLenPdf::5                       5                       # What read queue length does an incoming req see
system.mem_ctrls.rdQLenPdf::6                       4                       # What read queue length does an incoming req see
system.mem_ctrls.rdQLenPdf::7                       4                       # What read queue length does an incoming req see
system.mem_ctrls.rdQLenPdf::8                       4                       # What read queue length does an incoming req see
system.mem_ctrls.rdQLenPdf::9                       3                       # What read queue length does an incoming req see
system.mem_ctrls.rdQLenPdf::10                      3                       # What read queue length does an incoming req see
system.mem_ctrls.rdQLenPdf::11                      3                       # What read queue length does an incoming req see
system.mem_ctrls.rdQLenPdf::12                      3                       # What read queue length does an incoming req see
system.mem_ctrls.rdQLenPdf::13                      3                       # What read queue length does an incoming req see
system.mem_ctrls.rdQLenPdf::14                      3                       # What read queue length does an incoming req see
system.mem_ctrls.rdQLenPdf::15                      3                       # What read queue length does an incoming req see
system.mem_ctrls.rdQLenPdf::16                      0                       # What read queue length does an incoming req see
system.mem_ctrls.rdQLenPdf::17                      0                       # What read queue length does an incoming req see
system.mem_ctrls.rdQLenPdf::18                      0                       # What read queue length does an incoming req see
system.mem_ctrls.rdQLenPdf::19                      0                       # What read queue length does an incoming req see
system.mem_ctrls.rdQLenPdf::20                      0                       # What read queue length does an incoming req see
system.mem_ctrls.rdQLenPdf::21                      0                       # What read queue length does an incoming req see
system.mem_ctrls.rdQLenPdf::22                      0                       # What read queue length does an incoming req see
system.mem_ctrls.rdQLenPdf::23                      0                       # What read queue length does an incoming req see
system.mem_ctrls.rdQLenPdf::24                      0                       # What read queue length does an incoming req see
system.mem_ctrls.rdQLenPdf::25                      0                       # What read queue length does an incoming req see
system.mem_ctrls.rdQLenPdf::26                      0                       # What read queue length does an incoming req see
system.mem_ctrls.rdQLenPdf::27                      0                       # What read queue length does an incoming req see
system.mem_ctrls.rdQLenPdf::28                      0                       # What read queue length does an incoming req see
system.mem_ctrls.rdQLenPdf::29                      0                       # What read queue length does an incoming req see
system.mem_ctrls.rdQLenPdf::30                      0                       # What read queue length does an incoming req see
system.mem_ctrls.rdQLenPdf::31                      0                       # What read queue length does an incoming req see
system.mem_ctrls.wrQLenPdf::0                       1                       # What write queue length does an incoming req see
system.mem_ctrls.wrQLenPdf::1                       1                       # What write queue length does an incoming req see
system.mem_ctrls.wrQLenPdf::2                       1                       # What write queue length does an incoming req see
system.mem_ctrls.wrQLenPdf::3                       1                       # What write queue length does an incoming req see
system.mem_ctrls.wrQLenPdf::4                       1                       # What write queue length does an incoming req see
system.mem_ctrls.wrQLenPdf::5                       1                       # What write queue length does an incoming req see
system.mem_ctrls.wrQLenPdf::6                       1                       # What write queue length does an incoming req see
system.mem_ctrls.wrQLenPdf::7                       1                       # What write queue length does an incoming req see
system.mem_ctrls.wrQLenPdf::8                       1                       # What write queue length does an incoming req see
system.mem_ctrls.wrQLenPdf::9                       1                       # What write queue length does an incoming req see
system.mem_ctrls.wrQLenPdf::10                      1                       # What write queue length does an incoming req see
system.mem_ctrls.wrQLenPdf::11                      1                       # What write queue length does an incoming req see
system.mem_ctrls.wrQLenPdf::12                      1                       # What write queue length does an incoming req see
system.mem_ctrls.wrQLenPdf::13                      1                       # What write queue length does an incoming req see
system.mem_ctrls.wrQLenPdf::14                      1                       # What write queue length does an incoming req see
system.mem_ctrls.wrQLenPdf::15                     12                       # What write queue length does an incoming req see
system.mem_ctrls.wrQLenPdf::16                     12                       # What write queue length does an incoming req see
system.mem_ctrls.wrQLenPdf::17                     37                       # What write queue length does an incoming req see
system.mem_ctrls.wrQLenPdf::18                     70                       # What write queue length does an incoming req see
system.mem_ctrls.wrQLenPdf::19                     72                       # What write queue length does an incoming req see
system.mem_ctrls.wrQLenPdf::20                     73                       # What write queue length does an incoming req see
system.mem_ctrls.wrQLenPdf::21                     73                       # What write queue length does an incoming req see
system.mem_ctrls.wrQLenPdf::22                     74                       # What write queue length does an incoming req see
system.mem_ctrls.wrQLenPdf::23                     75                       # What write queue length does an incoming req see
system.mem_ctrls.wrQLenPdf::24                     74                       # What write queue length does an incoming req see
system.mem_ctrls.wrQLenPdf::25                     75                       # What write queue length does an incoming req see
system.mem_ctrls.wrQLenPdf::26                     76                       # What write queue length does an incoming req see
system.mem_ctrls.wrQLenPdf::27                     75                       # What write queue length does an incoming req see
system.mem_ctrls.wrQLenPdf::28                     75                       # What write queue length does an incoming req see
system.mem_ctrls.wrQLenPdf::29                     76                       # What write queue length does an incoming req see
system.mem_ctrls.wrQLenPdf::30                     76                       # What write queue length does an incoming req see
system.mem_ctrls.wrQLenPdf::31                     75                       # What write queue length does an incoming req see
system.mem_ctrls.wrQLenPdf::32                     74                       # What write queue length does an incoming req see
system.mem_ctrls.wrQLenPdf::33                     44                       # What write queue length does an incoming req see
system.mem_ctrls.wrQLenPdf::34                      4                       # What write queue length does an incoming req see
system.mem_ctrls.wrQLenPdf::35                      3                       # What write queue length does an incoming req see
system.mem_ctrls.wrQLenPdf::36                      2                       # What write queue length does an incoming req see
system.mem_ctrls.wrQLenPdf::37                      1                       # What write queue length does an incoming req see
system.mem_ctrls.wrQLenPdf::38                      1                       # What write queue length does an incoming req see
system.mem_ctrls.wrQLenPdf::39                      0                       # What write queue length does an incoming req see
system.mem_ctrls.wrQLenPdf::40                      0                       # What write queue length does an incoming req see
system.mem_ctrls.wrQLenPdf::41                      0                       # What write queue length does an incoming req see
system.mem_ctrls.wrQLenPdf::42                      0                       # What write queue length does an incoming req see
system.mem_ctrls.wrQLenPdf::43                      0                       # What write queue length does an incoming req see
system.mem_ctrls.wrQLenPdf::44                      0                       # What write queue length does an incoming req see
system.mem_ctrls.wrQLenPdf::45                      0                       # What write queue length does an incoming req see
system.mem_ctrls.wrQLenPdf::46                      0                       # What write queue length does an incoming req see
system.mem_ctrls.wrQLenPdf::47                      0                       # What write queue length does an incoming req see
system.mem_ctrls.wrQLenPdf::48                      0                       # What write queue length does an incoming req see
system.mem_ctrls.wrQLenPdf::49                      0                       # What write queue length does an incoming req see
system.mem_ctrls.wrQLenPdf::50                      0                       # What write queue length does an incoming req see
system.mem_ctrls.wrQLenPdf::51                      0                       # What write queue length does an incoming req see
system.mem_ctrls.wrQLenPdf::52                      0                       # What write queue length does an incoming req see
system.mem_ctrls.wrQLenPdf::53                      0                       # What write queue length does an incoming req see
system.mem_ctrls.wrQLenPdf::54                      0                       # What write queue length does an incoming req see
system.mem_ctrls.wrQLenPdf::55                      0                       # What write queue length does an incoming req see
system.mem_ctrls.wrQLenPdf::56                      0                       # What write queue length does an incoming req see
system.mem_ctrls.wrQLenPdf::57                      0                       # What write queue length does an incoming req see
system.mem_ctrls.wrQLenPdf::58                      0                       # What write queue length does an incoming req see
system.mem_ctrls.wrQLenPdf::59                      0                       # What write queue length does an incoming req see
system.mem_ctrls.wrQLenPdf::60                      0                       # What write queue length does an incoming req see
system.mem_ctrls.wrQLenPdf::61                      0                       # What write queue length does an incoming req see
system.mem_ctrls.wrQLenPdf::62                      0                       # What write queue length does an incoming req see
system.mem_ctrls.wrQLenPdf::63                      0                       # What write queue length does an incoming req see
system.mem_ctrls.bytesPerActivate::samples          684                       # Bytes accessed per row activation
system.mem_ctrls.bytesPerActivate::mean    289.122807                       # Bytes accessed per row activation
system.mem_ctrls.bytesPerActivate::gmean   223.768716                       # Bytes accessed per row activation
system.mem_ctrls.bytesPerActivate::stdev   237.539861                       # Bytes accessed per row activation
system.mem_ctrls.bytesPerActivate::0-127           17      2.49%      2.49% # Bytes accessed per row activation
system.mem_ctrls.bytesPerActivate::128-255          326     47.66%     50.15% # Bytes accessed per row activation
system.mem_ctrls.bytesPerActivate::256-383          148     21.64%     71.78% # Bytes accessed per row activation
system.mem_ctrls.bytesPerActivate::384-511           76     11.11%     82.89% # Bytes accessed per row activation
system.mem_ctrls.bytesPerActivate::512-639           33      4.82%     87.72% # Bytes accessed per row activation
system.mem_ctrls.bytesPerActivate::640-767           29      4.24%     91.96% # Bytes accessed per row activation
system.mem_ctrls.bytesPerActivate::768-895           16      2.34%     94.30% # Bytes accessed per row activation
system.mem_ctrls.bytesPerActivate::896-1023            8      1.17%     95.47% # Bytes accessed per row activation
system.mem_ctrls.bytesPerActivate::1024-1151           31      4.53%    100.00% # Bytes accessed per row activation
system.mem_ctrls.bytesPerActivate::total          684                       # Bytes accessed per row activation
system.mem_ctrls.rdPerTurnAround::samples           72                       # Reads before turning the bus around for writes
system.mem_ctrls.rdPerTurnAround::mean      26.833333                       # Reads before turning the bus around for writes
system.mem_ctrls.rdPerTurnAround::gmean     17.542484                       # Reads before turning the bus around for writes
system.mem_ctrls.rdPerTurnAround::stdev     53.335769                       # Reads before turning the bus around for writes
system.mem_ctrls.rdPerTurnAround::0-15             22     30.56%     30.56% # Reads before turning the bus around for writes
system.mem_ctrls.rdPerTurnAround::16-31            36     50.00%     80.56% # Reads before turning the bus around for writes
system.mem_ctrls.rdPerTurnAround::32-47            11     15.28%     95.83% # Reads before turning the bus around for writes
system.mem_ctrls.rdPerTurnAround::48-63             1      1.39%     97.22% # Reads before turning the bus around for writes
system.mem_ctrls.rdPerTurnAround::80-95             1      1.39%     98.61% # Reads before turning the bus around for writes
system.mem_ctrls.rdPerTurnAround::448-463            1      1.39%    100.00% # Reads before turning the bus around for writes
system.mem_ctrls.rdPerTurnAround::total            72                       # Reads before turning the bus around for writes
system.mem_ctrls.wrPerTurnAround::samples           72                       # Writes before turning the bus around for reads
system.mem_ctrls.wrPerTurnAround::mean      16.833333                       # Writes before turning the bus around for reads
system.mem_ctrls.wrPerTurnAround::gmean     16.642330                       # Writes before turning the bus around for reads
system.mem_ctrls.wrPerTurnAround::stdev      3.435523                       # Writes before turning the bus around for reads
system.mem_ctrls.wrPerTurnAround::16               60     83.33%     83.33% # Writes before turning the bus around for reads
system.mem_ctrls.wrPerTurnAround::17                1      1.39%     84.72% # Writes before turning the bus around for reads
system.mem_ctrls.wrPerTurnAround::18                2      2.78%     87.50% # Writes before turning the bus around for reads
system.mem_ctrls.wrPerTurnAround::19                6      8.33%     95.83% # Writes before turning the bus around for reads
system.mem_ctrls.wrPerTurnAround::20                1      1.39%     97.22% # Writes before turning the bus around for reads
system.mem_ctrls.wrPerTurnAround::21                1      1.39%     98.61% # Writes before turning the bus around for reads
system.mem_ctrls.wrPerTurnAround::44                1      1.39%    100.00% # Writes before turning the bus around for reads
system.mem_ctrls.wrPerTurnAround::total            72                       # Writes before turning the bus around for reads
system.mem_ctrls.totQLat                     42502494                       # Total ticks spent queuing
system.mem_ctrls.totMemAccLat                79027494                       # Total ticks spent from burst creation until serviced by the DRAM
system.mem_ctrls.totBusLat                    9740000                       # Total ticks spent in databus transfers
system.mem_ctrls.avgQLat                     21818.53                       # Average queueing delay per DRAM burst
system.mem_ctrls.avgBusLat                    5000.00                       # Average bus latency per DRAM burst
system.mem_ctrls.avgMemAccLat                40568.53                       # Average memory access latency per DRAM burst
system.mem_ctrls.avgRdBW                        83.49                       # Average DRAM read bandwidth in MiByte/s
system.mem_ctrls.avgWrBW                        51.95                       # Average achieved write bandwidth in MiByte/s
system.mem_ctrls.avgRdBWSys                    419.69                       # Average system read bandwidth in MiByte/s
system.mem_ctrls.avgWrBWSys                    378.21                       # Average system write bandwidth in MiByte/s
system.mem_ctrls.peakBW                      12800.00                       # Theoretical peak bandwidth in MiByte/s
system.mem_ctrls.busUtil                         1.06                       # Data bus utilization in percentage
system.mem_ctrls.busUtilRead                     0.65                       # Data bus utilization in percentage for reads
system.mem_ctrls.busUtilWrite                    0.41                       # Data bus utilization in percentage for writes
system.mem_ctrls.avgRdQLen                       2.04                       # Average read queue length when enqueuing
system.mem_ctrls.avgWrQLen                      28.49                       # Average write queue length when enqueuing
system.mem_ctrls.readRowHits                     1551                       # Number of row buffer hits during reads
system.mem_ctrls.writeRowHits                     909                       # Number of row buffer hits during writes
system.mem_ctrls.readRowHitRate                 79.62                       # Row buffer hit rate for reads
system.mem_ctrls.writeRowHitRate                73.07                       # Row buffer hit rate for writes
system.mem_ctrls.avgGap                     160415.07                       # Average gap between requests
system.mem_ctrls.pageHitRate                    77.07                       # Row buffer hit rate, read and write combined
system.mem_ctrls_0.actEnergy                  2071440                       # Energy for activate commands per rank (pJ)
system.mem_ctrls_0.preEnergy                  1130250                       # Energy for precharge commands per rank (pJ)
system.mem_ctrls_0.readEnergy                 5951400                       # Energy for read commands per rank (pJ)
system.mem_ctrls_0.writeEnergy                2792880                       # Energy for write commands per rank (pJ)
system.mem_ctrls_0.refreshEnergy             97134960                       # Energy for refresh commands per rank (pJ)
system.mem_ctrls_0.actBackEnergy            220011165                       # Energy for active background per rank (pJ)
system.mem_ctrls_0.preBackEnergy            699468000                       # Energy for precharge background per rank (pJ)
system.mem_ctrls_0.totalEnergy             1028560095                       # Total energy per rank (pJ)
system.mem_ctrls_0.averagePower            691.499769                       # Core power per rank (mW)
system.mem_ctrls_0.memoryStateTime::IDLE   1163004750                       # Time in different power states
system.mem_ctrls_0.memoryStateTime::REF      49660000                       # Time in different power states
system.mem_ctrls_0.memoryStateTime::PRE_PDN            0                       # Time in different power states
system.mem_ctrls_0.memoryStateTime::ACT     275452750                       # Time in different power states
system.mem_ctrls_0.memoryStateTime::ACT_PDN            0                       # Time in different power states
system.mem_ctrls_1.actEnergy                  2918160                       # Energy for activate commands per rank (pJ)
system.mem_ctrls_1.preEnergy                  1592250                       # Energy for precharge commands per rank (pJ)
system.mem_ctrls_1.readEnergy                 8587800                       # Energy for read commands per rank (pJ)
system.mem_ctrls_1.writeEnergy                4542480                       # Energy for write commands per rank (pJ)
system.mem_ctrls_1.refreshEnergy             97134960                       # Energy for refresh commands per rank (pJ)
system.mem_ctrls_1.actBackEnergy            278024625                       # Energy for active background per rank (pJ)
system.mem_ctrls_1.preBackEnergy            648579000                       # Energy for precharge background per rank (pJ)
system.mem_ctrls_1.totalEnergy             1041379275                       # Total energy per rank (pJ)
system.mem_ctrls_1.averagePower            700.118089                       # Core power per rank (mW)
system.mem_ctrls_1.memoryStateTime::IDLE   1077348500                       # Time in different power states
system.mem_ctrls_1.memoryStateTime::REF      49660000                       # Time in different power states
system.mem_ctrls_1.memoryStateTime::PRE_PDN            0                       # Time in different power states
system.mem_ctrls_1.memoryStateTime::ACT     360439000                       # Time in different power states
system.mem_ctrls_1.memoryStateTime::ACT_PDN            0                       # Time in different power states
system.ruby_clk_domain.clock                      500                       # Clock period in ticks
system.ruby.phys_mem.bytes_read::cpu.inst      8231432                       # Number of bytes read from this memory
system.ruby.phys_mem.bytes_read::cpu.data      1043503                       # Number of bytes read from this memory
system.ruby.phys_mem.bytes_read::gpu.ce          4892                       # Number of bytes read from this memory
system.ruby.phys_mem.bytes_read::gpu.shader_cores01.data         1760                       # Number of bytes read from this memory
system.ruby.phys_mem.bytes_read::gpu.shader_cores01.inst          112                       # Number of bytes read from this memory
system.ruby.phys_mem.bytes_read::gpu.shader_cores02.data         7584                       # Number of bytes read from this memory
system.ruby.phys_mem.bytes_read::gpu.shader_cores02.inst          112                       # Number of bytes read from this memory
system.ruby.phys_mem.bytes_read::total        9289395                       # Number of bytes read from this memory
system.ruby.phys_mem.bytes_inst_read::cpu.inst      8231432                       # Number of instructions bytes read from this memory
system.ruby.phys_mem.bytes_inst_read::gpu.shader_cores01.inst          112                       # Number of instructions bytes read from this memory
system.ruby.phys_mem.bytes_inst_read::gpu.shader_cores02.inst          112                       # Number of instructions bytes read from this memory
system.ruby.phys_mem.bytes_inst_read::total      8231656                       # Number of instructions bytes read from this memory
system.ruby.phys_mem.bytes_written::cpu.data       735946                       # Number of bytes written to this memory
system.ruby.phys_mem.bytes_written::gpu.ce         4892                       # Number of bytes written to this memory
system.ruby.phys_mem.bytes_written::gpu.shader_cores01.data           64                       # Number of bytes written to this memory
system.ruby.phys_mem.bytes_written::gpu.shader_cores02.data         2176                       # Number of bytes written to this memory
system.ruby.phys_mem.bytes_written::total       743078                       # Number of bytes written to this memory
system.ruby.phys_mem.num_reads::cpu.inst      1028929                       # Number of read requests responded to by this memory
system.ruby.phys_mem.num_reads::cpu.data       168005                       # Number of read requests responded to by this memory
system.ruby.phys_mem.num_reads::gpu.ce             45                       # Number of read requests responded to by this memory
system.ruby.phys_mem.num_reads::gpu.shader_cores01.data           24                       # Number of read requests responded to by this memory
system.ruby.phys_mem.num_reads::gpu.shader_cores01.inst            7                       # Number of read requests responded to by this memory
system.ruby.phys_mem.num_reads::gpu.shader_cores02.data           85                       # Number of read requests responded to by this memory
system.ruby.phys_mem.num_reads::gpu.shader_cores02.inst            7                       # Number of read requests responded to by this memory
system.ruby.phys_mem.num_reads::total         1197102                       # Number of read requests responded to by this memory
system.ruby.phys_mem.num_writes::cpu.data       115621                       # Number of write requests responded to by this memory
system.ruby.phys_mem.num_writes::gpu.ce            44                       # Number of write requests responded to by this memory
system.ruby.phys_mem.num_writes::gpu.shader_cores01.data            8                       # Number of write requests responded to by this memory
system.ruby.phys_mem.num_writes::gpu.shader_cores02.data           50                       # Number of write requests responded to by this memory
system.ruby.phys_mem.num_writes::total         115723                       # Number of write requests responded to by this memory
system.ruby.phys_mem.bw_read::cpu.inst     5512615532                       # Total read bandwidth from this memory (bytes/s)
system.ruby.phys_mem.bw_read::cpu.data      698837195                       # Total read bandwidth from this memory (bytes/s)
system.ruby.phys_mem.bw_read::gpu.ce          3276188                       # Total read bandwidth from this memory (bytes/s)
system.ruby.phys_mem.bw_read::gpu.shader_cores01.data      1178677                       # Total read bandwidth from this memory (bytes/s)
system.ruby.phys_mem.bw_read::gpu.shader_cores01.inst        75007                       # Total read bandwidth from this memory (bytes/s)
system.ruby.phys_mem.bw_read::gpu.shader_cores02.data      5079028                       # Total read bandwidth from this memory (bytes/s)
system.ruby.phys_mem.bw_read::gpu.shader_cores02.inst        75007                       # Total read bandwidth from this memory (bytes/s)
system.ruby.phys_mem.bw_read::total        6221136633                       # Total read bandwidth from this memory (bytes/s)
system.ruby.phys_mem.bw_inst_read::cpu.inst   5512615532                       # Instruction read bandwidth from this memory (bytes/s)
system.ruby.phys_mem.bw_inst_read::gpu.shader_cores01.inst        75007                       # Instruction read bandwidth from this memory (bytes/s)
system.ruby.phys_mem.bw_inst_read::gpu.shader_cores02.inst        75007                       # Instruction read bandwidth from this memory (bytes/s)
system.ruby.phys_mem.bw_inst_read::total   5512765546                       # Instruction read bandwidth from this memory (bytes/s)
system.ruby.phys_mem.bw_write::cpu.data     492865318                       # Write bandwidth from this memory (bytes/s)
system.ruby.phys_mem.bw_write::gpu.ce         3276188                       # Write bandwidth from this memory (bytes/s)
system.ruby.phys_mem.bw_write::gpu.shader_cores01.data        42861                       # Write bandwidth from this memory (bytes/s)
system.ruby.phys_mem.bw_write::gpu.shader_cores02.data      1457274                       # Write bandwidth from this memory (bytes/s)
system.ruby.phys_mem.bw_write::total        497641641                       # Write bandwidth from this memory (bytes/s)
system.ruby.phys_mem.bw_total::cpu.inst    5512615532                       # Total bandwidth to/from this memory (bytes/s)
system.ruby.phys_mem.bw_total::cpu.data    1191702513                       # Total bandwidth to/from this memory (bytes/s)
system.ruby.phys_mem.bw_total::gpu.ce         6552375                       # Total bandwidth to/from this memory (bytes/s)
system.ruby.phys_mem.bw_total::gpu.shader_cores01.data      1221538                       # Total bandwidth to/from this memory (bytes/s)
system.ruby.phys_mem.bw_total::gpu.shader_cores01.inst        75007                       # Total bandwidth to/from this memory (bytes/s)
system.ruby.phys_mem.bw_total::gpu.shader_cores02.data      6536302                       # Total bandwidth to/from this memory (bytes/s)
system.ruby.phys_mem.bw_total::gpu.shader_cores02.inst        75007                       # Total bandwidth to/from this memory (bytes/s)
system.ruby.phys_mem.bw_total::total       6718778274                       # Total bandwidth to/from this memory (bytes/s)
system.cpu_voltage_domain.voltage                   1                       # Voltage in Volts
system.cpu_clk_domain.clock                       500                       # Clock period in ticks
system.cpu.apic_clk_domain.clock                 8000                       # Clock period in ticks
system.cpu.workload.num_syscalls                   44                       # Number of system calls
system.cpu.numCycles                          2986398                       # number of cpu cycles simulated
system.cpu.numWorkItemsStarted                      1                       # number of work items this cpu started
system.cpu.numWorkItemsCompleted                    1                       # number of work items this cpu completed
system.cpu.committedInsts                      760683                       # Number of instructions committed
system.cpu.committedOps                       1483318                       # Number of ops (including micro ops) committed
system.cpu.num_int_alu_accesses               1456139                       # Number of integer alu accesses
system.cpu.num_fp_alu_accesses                  36029                       # Number of float alu accesses
system.cpu.num_func_calls                       25647                       # number of times a function call or return occured
system.cpu.num_conditional_control_insts       138666                       # number of instructions that are conditional controls
system.cpu.num_int_insts                      1456139                       # number of integer instructions
system.cpu.num_fp_insts                         36029                       # number of float instructions
system.cpu.num_int_register_reads             2743749                       # number of times the integer registers were read
system.cpu.num_int_register_writes            1157546                       # number of times the integer registers were written
system.cpu.num_fp_register_reads                53221                       # number of times the floating registers were read
system.cpu.num_fp_register_writes               25928                       # number of times the floating registers were written
system.cpu.num_cc_register_reads               935215                       # number of times the CC registers were read
system.cpu.num_cc_register_writes              473328                       # number of times the CC registers were written
system.cpu.num_mem_refs                        283618                       # number of memory refs
system.cpu.num_load_insts                      167998                       # Number of load instructions
system.cpu.num_store_insts                     115620                       # Number of store instructions
system.cpu.num_idle_cycles               52451.601965                       # Number of idle cycles
system.cpu.num_busy_cycles               2933946.398035                       # Number of busy cycles
system.cpu.not_idle_fraction                 0.982436                       # Percentage of non-idle cycles
system.cpu.idle_fraction                     0.017564                       # Percentage of idle cycles
system.cpu.Branches                            184660                       # Number of branches fetched
system.cpu.op_class::No_OpClass                  6171      0.42%      0.42% # Class of executed instruction
system.cpu.op_class::IntAlu                   1167057     78.68%     79.09% # Class of executed instruction
system.cpu.op_class::IntMult                     3320      0.22%     79.32% # Class of executed instruction
system.cpu.op_class::IntDiv                       394      0.03%     79.35% # Class of executed instruction
system.cpu.op_class::FloatAdd                   22758      1.53%     80.88% # Class of executed instruction
system.cpu.op_class::FloatCmp                       0      0.00%     80.88% # Class of executed instruction
system.cpu.op_class::FloatCvt                       0      0.00%     80.88% # Class of executed instruction
system.cpu.op_class::FloatMult                      0      0.00%     80.88% # Class of executed instruction
system.cpu.op_class::FloatDiv                       0      0.00%     80.88% # Class of executed instruction
system.cpu.op_class::FloatSqrt                      0      0.00%     80.88% # Class of executed instruction
system.cpu.op_class::SimdAdd                        0      0.00%     80.88% # Class of executed instruction
system.cpu.op_class::SimdAddAcc                     0      0.00%     80.88% # Class of executed instruction
system.cpu.op_class::SimdAlu                        0      0.00%     80.88% # Class of executed instruction
system.cpu.op_class::SimdCmp                        0      0.00%     80.88% # Class of executed instruction
system.cpu.op_class::SimdCvt                        0      0.00%     80.88% # Class of executed instruction
system.cpu.op_class::SimdMisc                       0      0.00%     80.88% # Class of executed instruction
system.cpu.op_class::SimdMult                       0      0.00%     80.88% # Class of executed instruction
system.cpu.op_class::SimdMultAcc                    0      0.00%     80.88% # Class of executed instruction
system.cpu.op_class::SimdShift                      0      0.00%     80.88% # Class of executed instruction
system.cpu.op_class::SimdShiftAcc                   0      0.00%     80.88% # Class of executed instruction
system.cpu.op_class::SimdSqrt                       0      0.00%     80.88% # Class of executed instruction
system.cpu.op_class::SimdFloatAdd                   0      0.00%     80.88% # Class of executed instruction
system.cpu.op_class::SimdFloatAlu                   0      0.00%     80.88% # Class of executed instruction
system.cpu.op_class::SimdFloatCmp                   0      0.00%     80.88% # Class of executed instruction
system.cpu.op_class::SimdFloatCvt                   0      0.00%     80.88% # Class of executed instruction
system.cpu.op_class::SimdFloatDiv                   0      0.00%     80.88% # Class of executed instruction
system.cpu.op_class::SimdFloatMisc                  0      0.00%     80.88% # Class of executed instruction
system.cpu.op_class::SimdFloatMult                  0      0.00%     80.88% # Class of executed instruction
system.cpu.op_class::SimdFloatMultAcc               0      0.00%     80.88% # Class of executed instruction
system.cpu.op_class::SimdFloatSqrt                  0      0.00%     80.88% # Class of executed instruction
system.cpu.op_class::MemRead                   167998     11.33%     92.21% # Class of executed instruction
system.cpu.op_class::MemWrite                  115620      7.79%    100.00% # Class of executed instruction
system.cpu.op_class::IprAccess                      0      0.00%    100.00% # Class of executed instruction
system.cpu.op_class::InstPrefetch                   0      0.00%    100.00% # Class of executed instruction
system.cpu.op_class::total                    1483318                       # Class of executed instruction
system.gpu.clk_domain.voltage_domain.voltage            1                       # Voltage in Volts
system.gpu.clk_domain.clock                      1429                       # Clock period in ticks
system.gpu.dram_wrapper.clk_domain.clock          541                       # Clock period in ticks
system.gpu.icnt_wrapper.clk_domain.clock         2858                       # Clock period in ticks
system.ruby.delayHist::bucket_size                 32                       # delay histogram for all message
system.ruby.delayHist::max_bucket                 319                       # delay histogram for all message
system.ruby.delayHist::samples                   9518                       # delay histogram for all message
system.ruby.delayHist::mean                  0.260769                       # delay histogram for all message
system.ruby.delayHist::stdev                 4.523075                       # delay histogram for all message
system.ruby.delayHist                    |        9490     99.71%     99.71% |          16      0.17%     99.87% |           6      0.06%     99.94% |           2      0.02%     99.96% |           2      0.02%     99.98% |           2      0.02%    100.00% |           0      0.00%    100.00% |           0      0.00%    100.00% |           0      0.00%    100.00% |           0      0.00%    100.00% # delay histogram for all message
system.ruby.delayHist::total                     9518                       # delay histogram for all message
system.ruby.outstanding_req_hist::bucket_size            2                      
system.ruby.outstanding_req_hist::max_bucket           19                      
system.ruby.outstanding_req_hist::samples      1312825                      
system.ruby.outstanding_req_hist::mean       1.000571                      
system.ruby.outstanding_req_hist::gmean      1.000192                      
system.ruby.outstanding_req_hist::stdev      0.060199                      
system.ruby.outstanding_req_hist         |     1312670     99.99%     99.99% |          40      0.00%     99.99% |          26      0.00%     99.99% |          33      0.00%    100.00% |          49      0.00%    100.00% |           7      0.00%    100.00% |           0      0.00%    100.00% |           0      0.00%    100.00% |           0      0.00%    100.00% |           0      0.00%    100.00%
system.ruby.outstanding_req_hist::total       1312825                      
system.ruby.latency_hist::bucket_size             128                      
system.ruby.latency_hist::max_bucket             1279                      
system.ruby.latency_hist::samples             1312825                      
system.ruby.latency_hist::mean               1.249900                      
system.ruby.latency_hist::gmean              1.015544                      
system.ruby.latency_hist::stdev              5.399009                      
system.ruby.latency_hist                 |     1312377     99.97%     99.97% |         357      0.03%     99.99% |          66      0.01%    100.00% |           6      0.00%    100.00% |           9      0.00%    100.00% |           6      0.00%    100.00% |           4      0.00%    100.00% |           0      0.00%    100.00% |           0      0.00%    100.00% |           0      0.00%    100.00%
system.ruby.latency_hist::total               1312825                      
system.ruby.hit_latency_hist::bucket_size            8                      
system.ruby.hit_latency_hist::max_bucket           79                      
system.ruby.hit_latency_hist::samples         1307824                      
system.ruby.hit_latency_hist::mean           1.000103                      
system.ruby.hit_latency_hist::gmean          1.000012                      
system.ruby.hit_latency_hist::stdev          0.063569                      
system.ruby.hit_latency_hist             |     1307820    100.00%    100.00% |           1      0.00%    100.00% |           1      0.00%    100.00% |           0      0.00%    100.00% |           1      0.00%    100.00% |           0      0.00%    100.00% |           0      0.00%    100.00% |           1      0.00%    100.00% |           0      0.00%    100.00% |           0      0.00%    100.00%
system.ruby.hit_latency_hist::total           1307824                      
system.ruby.miss_latency_hist::bucket_size          128                      
system.ruby.miss_latency_hist::max_bucket         1279                      
system.ruby.miss_latency_hist::samples           5001                      
system.ruby.miss_latency_hist::mean         66.574885                      
system.ruby.miss_latency_hist::gmean        57.170602                      
system.ruby.miss_latency_hist::stdev        58.034432                      
system.ruby.miss_latency_hist            |        4553     91.04%     91.04% |         357      7.14%     98.18% |          66      1.32%     99.50% |           6      0.12%     99.62% |           9      0.18%     99.80% |           6      0.12%     99.92% |           4      0.08%    100.00% |           0      0.00%    100.00% |           0      0.00%    100.00% |           0      0.00%    100.00%
system.ruby.miss_latency_hist::total             5001                      
system.ruby.L1Cache.incomplete_times              105                      
system.ruby.Directory.incomplete_times           4895                      
system.gpu.shader_mmu.numPagefaults                 0                       # Number of Pagefaults
system.gpu.shader_mmu.numPagewalks                 11                       # Number of Pagewalks
system.gpu.shader_mmu.totalRequests                11                       # Total number of requests
system.gpu.shader_mmu.l2hits                        0                       # Hits in the shared L2
system.gpu.shader_mmu.prefetchHits                  0                       # Number of prefetch hits
system.gpu.shader_mmu.numPrefetches                 0                       # Number of prefetchs
system.gpu.shader_mmu.prefetchFaults                0                       # Number of faults caused by prefetches
system.gpu.shader_mmu.pagefaultLatency::samples            0                       # Latency to complete the pagefault
system.gpu.shader_mmu.pagefaultLatency::mean          nan                       # Latency to complete the pagefault
system.gpu.shader_mmu.pagefaultLatency::gmean          nan                       # Latency to complete the pagefault
system.gpu.shader_mmu.pagefaultLatency::stdev          nan                       # Latency to complete the pagefault
system.gpu.shader_mmu.pagefaultLatency::0            0                       # Latency to complete the pagefault
system.gpu.shader_mmu.pagefaultLatency::1            0                       # Latency to complete the pagefault
system.gpu.shader_mmu.pagefaultLatency::2            0                       # Latency to complete the pagefault
system.gpu.shader_mmu.pagefaultLatency::3            0                       # Latency to complete the pagefault
system.gpu.shader_mmu.pagefaultLatency::4            0                       # Latency to complete the pagefault
system.gpu.shader_mmu.pagefaultLatency::5            0                       # Latency to complete the pagefault
system.gpu.shader_mmu.pagefaultLatency::6            0                       # Latency to complete the pagefault
system.gpu.shader_mmu.pagefaultLatency::7            0                       # Latency to complete the pagefault
system.gpu.shader_mmu.pagefaultLatency::8            0                       # Latency to complete the pagefault
system.gpu.shader_mmu.pagefaultLatency::9            0                       # Latency to complete the pagefault
system.gpu.shader_mmu.pagefaultLatency::10            0                       # Latency to complete the pagefault
system.gpu.shader_mmu.pagefaultLatency::11            0                       # Latency to complete the pagefault
system.gpu.shader_mmu.pagefaultLatency::12            0                       # Latency to complete the pagefault
system.gpu.shader_mmu.pagefaultLatency::13            0                       # Latency to complete the pagefault
system.gpu.shader_mmu.pagefaultLatency::14            0                       # Latency to complete the pagefault
system.gpu.shader_mmu.pagefaultLatency::15            0                       # Latency to complete the pagefault
system.gpu.shader_mmu.pagefaultLatency::16            0                       # Latency to complete the pagefault
system.gpu.shader_mmu.pagefaultLatency::17            0                       # Latency to complete the pagefault
system.gpu.shader_mmu.pagefaultLatency::18            0                       # Latency to complete the pagefault
system.gpu.shader_mmu.pagefaultLatency::19            0                       # Latency to complete the pagefault
system.gpu.shader_mmu.pagefaultLatency::20            0                       # Latency to complete the pagefault
system.gpu.shader_mmu.pagefaultLatency::21            0                       # Latency to complete the pagefault
system.gpu.shader_mmu.pagefaultLatency::22            0                       # Latency to complete the pagefault
system.gpu.shader_mmu.pagefaultLatency::23            0                       # Latency to complete the pagefault
system.gpu.shader_mmu.pagefaultLatency::24            0                       # Latency to complete the pagefault
system.gpu.shader_mmu.pagefaultLatency::25            0                       # Latency to complete the pagefault
system.gpu.shader_mmu.pagefaultLatency::26            0                       # Latency to complete the pagefault
system.gpu.shader_mmu.pagefaultLatency::27            0                       # Latency to complete the pagefault
system.gpu.shader_mmu.pagefaultLatency::28            0                       # Latency to complete the pagefault
system.gpu.shader_mmu.pagefaultLatency::29            0                       # Latency to complete the pagefault
system.gpu.shader_mmu.pagefaultLatency::30            0                       # Latency to complete the pagefault
system.gpu.shader_mmu.pagefaultLatency::31            0                       # Latency to complete the pagefault
system.gpu.shader_mmu.pagefaultLatency::total            0                       # Latency to complete the pagefault
system.gpu.shader_mmu.concurrentWalks::samples           11                       # Number of outstanding walks
system.gpu.shader_mmu.concurrentWalks::mean            0                       # Number of outstanding walks
system.gpu.shader_mmu.concurrentWalks::gmean            0                       # Number of outstanding walks
system.gpu.shader_mmu.concurrentWalks::stdev            0                       # Number of outstanding walks
system.gpu.shader_mmu.concurrentWalks::0           11    100.00%    100.00% # Number of outstanding walks
system.gpu.shader_mmu.concurrentWalks::1            0      0.00%    100.00% # Number of outstanding walks
system.gpu.shader_mmu.concurrentWalks::2            0      0.00%    100.00% # Number of outstanding walks
system.gpu.shader_mmu.concurrentWalks::3            0      0.00%    100.00% # Number of outstanding walks
system.gpu.shader_mmu.concurrentWalks::4            0      0.00%    100.00% # Number of outstanding walks
system.gpu.shader_mmu.concurrentWalks::5            0      0.00%    100.00% # Number of outstanding walks
system.gpu.shader_mmu.concurrentWalks::6            0      0.00%    100.00% # Number of outstanding walks
system.gpu.shader_mmu.concurrentWalks::7            0      0.00%    100.00% # Number of outstanding walks
system.gpu.shader_mmu.concurrentWalks::8            0      0.00%    100.00% # Number of outstanding walks
system.gpu.shader_mmu.concurrentWalks::9            0      0.00%    100.00% # Number of outstanding walks
system.gpu.shader_mmu.concurrentWalks::10            0      0.00%    100.00% # Number of outstanding walks
system.gpu.shader_mmu.concurrentWalks::11            0      0.00%    100.00% # Number of outstanding walks
system.gpu.shader_mmu.concurrentWalks::12            0      0.00%    100.00% # Number of outstanding walks
system.gpu.shader_mmu.concurrentWalks::13            0      0.00%    100.00% # Number of outstanding walks
system.gpu.shader_mmu.concurrentWalks::14            0      0.00%    100.00% # Number of outstanding walks
system.gpu.shader_mmu.concurrentWalks::15            0      0.00%    100.00% # Number of outstanding walks
system.gpu.shader_mmu.concurrentWalks::total           11                       # Number of outstanding walks
system.gpu.shader_mmu.pagewalkLatency::samples           11                       # Latency to complete the pagewalk
system.gpu.shader_mmu.pagewalkLatency::mean            0                       # Latency to complete the pagewalk
system.gpu.shader_mmu.pagewalkLatency::gmean            0                       # Latency to complete the pagewalk
system.gpu.shader_mmu.pagewalkLatency::stdev            0                       # Latency to complete the pagewalk
system.gpu.shader_mmu.pagewalkLatency::0           11    100.00%    100.00% # Latency to complete the pagewalk
system.gpu.shader_mmu.pagewalkLatency::1            0      0.00%    100.00% # Latency to complete the pagewalk
system.gpu.shader_mmu.pagewalkLatency::2            0      0.00%    100.00% # Latency to complete the pagewalk
system.gpu.shader_mmu.pagewalkLatency::3            0      0.00%    100.00% # Latency to complete the pagewalk
system.gpu.shader_mmu.pagewalkLatency::4            0      0.00%    100.00% # Latency to complete the pagewalk
system.gpu.shader_mmu.pagewalkLatency::5            0      0.00%    100.00% # Latency to complete the pagewalk
system.gpu.shader_mmu.pagewalkLatency::6            0      0.00%    100.00% # Latency to complete the pagewalk
system.gpu.shader_mmu.pagewalkLatency::7            0      0.00%    100.00% # Latency to complete the pagewalk
system.gpu.shader_mmu.pagewalkLatency::8            0      0.00%    100.00% # Latency to complete the pagewalk
system.gpu.shader_mmu.pagewalkLatency::9            0      0.00%    100.00% # Latency to complete the pagewalk
system.gpu.shader_mmu.pagewalkLatency::10            0      0.00%    100.00% # Latency to complete the pagewalk
system.gpu.shader_mmu.pagewalkLatency::11            0      0.00%    100.00% # Latency to complete the pagewalk
system.gpu.shader_mmu.pagewalkLatency::12            0      0.00%    100.00% # Latency to complete the pagewalk
system.gpu.shader_mmu.pagewalkLatency::13            0      0.00%    100.00% # Latency to complete the pagewalk
system.gpu.shader_mmu.pagewalkLatency::14            0      0.00%    100.00% # Latency to complete the pagewalk
system.gpu.shader_mmu.pagewalkLatency::15            0      0.00%    100.00% # Latency to complete the pagewalk
system.gpu.shader_mmu.pagewalkLatency::16            0      0.00%    100.00% # Latency to complete the pagewalk
system.gpu.shader_mmu.pagewalkLatency::17            0      0.00%    100.00% # Latency to complete the pagewalk
system.gpu.shader_mmu.pagewalkLatency::18            0      0.00%    100.00% # Latency to complete the pagewalk
system.gpu.shader_mmu.pagewalkLatency::19            0      0.00%    100.00% # Latency to complete the pagewalk
system.gpu.shader_mmu.pagewalkLatency::20            0      0.00%    100.00% # Latency to complete the pagewalk
system.gpu.shader_mmu.pagewalkLatency::21            0      0.00%    100.00% # Latency to complete the pagewalk
system.gpu.shader_mmu.pagewalkLatency::22            0      0.00%    100.00% # Latency to complete the pagewalk
system.gpu.shader_mmu.pagewalkLatency::23            0      0.00%    100.00% # Latency to complete the pagewalk
system.gpu.shader_mmu.pagewalkLatency::24            0      0.00%    100.00% # Latency to complete the pagewalk
system.gpu.shader_mmu.pagewalkLatency::25            0      0.00%    100.00% # Latency to complete the pagewalk
system.gpu.shader_mmu.pagewalkLatency::26            0      0.00%    100.00% # Latency to complete the pagewalk
system.gpu.shader_mmu.pagewalkLatency::27            0      0.00%    100.00% # Latency to complete the pagewalk
system.gpu.shader_mmu.pagewalkLatency::28            0      0.00%    100.00% # Latency to complete the pagewalk
system.gpu.shader_mmu.pagewalkLatency::29            0      0.00%    100.00% # Latency to complete the pagewalk
system.gpu.shader_mmu.pagewalkLatency::30            0      0.00%    100.00% # Latency to complete the pagewalk
system.gpu.shader_mmu.pagewalkLatency::31            0      0.00%    100.00% # Latency to complete the pagewalk
system.gpu.shader_mmu.pagewalkLatency::total           11                       # Latency to complete the pagewalk
system.gpu.kernels_started                          2                       # Number of kernels started
system.gpu.kernels_completed                        2                       # Number of kernels completed
system.gpu.ce.device_dtb.hits                       0                       # Number of hits in this TLB
system.gpu.ce.device_dtb.misses                     0                       # Number of misses in this TLB
system.gpu.ce.device_dtb.hitRate                  nan                       # Hit rate for this TLB
system.gpu.ce.host_dtb.hits                        34                       # Number of hits in this TLB
system.gpu.ce.host_dtb.misses                      11                       # Number of misses in this TLB
system.gpu.ce.host_dtb.hitRate               0.755556                       # Hit rate for this TLB
system.gpu.ce.numOperations                         8                       # Number of copy/memset operations
system.gpu.ce.opBytesRead                        4892                       # Number of copy bytes read
system.gpu.ce.opBytesWritten                     4892                       # Number of copy/memset bytes written
system.gpu.ce.opTimeTicks                    41386473                       # Total time spent in copy/memset operations
system.gpu.shader_cores00.itb.hits                  0                       # Number of hits in this TLB
system.gpu.shader_cores00.itb.misses                0                       # Number of misses in this TLB
system.gpu.shader_cores00.itb.hitRate             nan                       # Hit rate for this TLB
system.gpu.shader_cores00.local_loads               0                       # Number of loads from local space
system.gpu.shader_cores00.local_stores              0                       # Number of stores to local space
system.gpu.shader_cores00.shared_loads              0                       # Number of loads from shared space
system.gpu.shader_cores00.shared_stores             0                       # Number of stores to shared space
system.gpu.shader_cores00.param_kernel_loads            0                       # Number of loads from kernel parameter space
system.gpu.shader_cores00.param_local_loads            0                       # Number of loads from local parameter space
system.gpu.shader_cores00.param_local_stores            0                       # Number of stores to local parameter space
system.gpu.shader_cores00.const_loads               0                       # Number of loads from constant space
system.gpu.shader_cores00.tex_loads                 0                       # Number of loads from texture space
system.gpu.shader_cores00.global_loads              0                       # Number of loads from global space
system.gpu.shader_cores00.global_stores             0                       # Number of stores to global space
system.gpu.shader_cores00.surf_loads                0                       # Number of loads from surface space
system.gpu.shader_cores00.generic_loads             0                       # Number of loads from generic spaces (global, shared, local)
system.gpu.shader_cores00.generic_stores            0                       # Number of stores to generic spaces (global, shared, local)
system.gpu.shader_cores00.inst_cache_requests            0                       # Number of instruction cache requests sent
system.gpu.shader_cores00.inst_cache_retries            0                       # Number of instruction cache retries
system.gpu.shader_cores00.inst_counts::0            0                       # Inst counts: 1: ALU, 2: MAD, 3: CTRL, 4: SFU, 5: MEM, 6: TEX, 7: NOP
system.gpu.shader_cores00.inst_counts::1            0                       # Inst counts: 1: ALU, 2: MAD, 3: CTRL, 4: SFU, 5: MEM, 6: TEX, 7: NOP
system.gpu.shader_cores00.inst_counts::2            0                       # Inst counts: 1: ALU, 2: MAD, 3: CTRL, 4: SFU, 5: MEM, 6: TEX, 7: NOP
system.gpu.shader_cores00.inst_counts::3            0                       # Inst counts: 1: ALU, 2: MAD, 3: CTRL, 4: SFU, 5: MEM, 6: TEX, 7: NOP
system.gpu.shader_cores00.inst_counts::4            0                       # Inst counts: 1: ALU, 2: MAD, 3: CTRL, 4: SFU, 5: MEM, 6: TEX, 7: NOP
system.gpu.shader_cores00.inst_counts::5            0                       # Inst counts: 1: ALU, 2: MAD, 3: CTRL, 4: SFU, 5: MEM, 6: TEX, 7: NOP
system.gpu.shader_cores00.inst_counts::6            0                       # Inst counts: 1: ALU, 2: MAD, 3: CTRL, 4: SFU, 5: MEM, 6: TEX, 7: NOP
system.gpu.shader_cores00.inst_counts::7            0                       # Inst counts: 1: ALU, 2: MAD, 3: CTRL, 4: SFU, 5: MEM, 6: TEX, 7: NOP
system.gpu.shader_cores00.activeCycles              0                       # Number of cycles this shader was executing a CTA
system.gpu.shader_cores00.notStalledCycles            0                       # Number of cycles this shader was actually executing at least one instance
system.gpu.shader_cores00.instInstances             0                       # Total instructions executed by all PEs in the core
system.gpu.shader_cores00.instPerCycle            nan                       # Instruction instances per cycle
system.gpu.shader_cores00.kernels_completed            0                       # Number of kernels completed
system.gpu.shader_cores00.lsq.data_tlb.hits            0                       # Number of hits in this TLB
system.gpu.shader_cores00.lsq.data_tlb.misses            0                       # Number of misses in this TLB
system.gpu.shader_cores00.lsq.data_tlb.hitRate          nan                       # Hit rate for this TLB
system.gpu.shader_cores00.lsq.warpInstBufActive::samples            0                       # Histogram of number of active warp inst buffers at a given time
system.gpu.shader_cores00.lsq.warpInstBufActive::mean          nan                       # Histogram of number of active warp inst buffers at a given time
system.gpu.shader_cores00.lsq.warpInstBufActive::gmean          nan                       # Histogram of number of active warp inst buffers at a given time
system.gpu.shader_cores00.lsq.warpInstBufActive::stdev          nan                       # Histogram of number of active warp inst buffers at a given time
system.gpu.shader_cores00.lsq.warpInstBufActive::0            0                       # Histogram of number of active warp inst buffers at a given time
system.gpu.shader_cores00.lsq.warpInstBufActive::1            0                       # Histogram of number of active warp inst buffers at a given time
system.gpu.shader_cores00.lsq.warpInstBufActive::2            0                       # Histogram of number of active warp inst buffers at a given time
system.gpu.shader_cores00.lsq.warpInstBufActive::3            0                       # Histogram of number of active warp inst buffers at a given time
system.gpu.shader_cores00.lsq.warpInstBufActive::4            0                       # Histogram of number of active warp inst buffers at a given time
system.gpu.shader_cores00.lsq.warpInstBufActive::5            0                       # Histogram of number of active warp inst buffers at a given time
system.gpu.shader_cores00.lsq.warpInstBufActive::6            0                       # Histogram of number of active warp inst buffers at a given time
system.gpu.shader_cores00.lsq.warpInstBufActive::7            0                       # Histogram of number of active warp inst buffers at a given time
system.gpu.shader_cores00.lsq.warpInstBufActive::8            0                       # Histogram of number of active warp inst buffers at a given time
system.gpu.shader_cores00.lsq.warpInstBufActive::9            0                       # Histogram of number of active warp inst buffers at a given time
system.gpu.shader_cores00.lsq.warpInstBufActive::10            0                       # Histogram of number of active warp inst buffers at a given time
system.gpu.shader_cores00.lsq.warpInstBufActive::11            0                       # Histogram of number of active warp inst buffers at a given time
system.gpu.shader_cores00.lsq.warpInstBufActive::12            0                       # Histogram of number of active warp inst buffers at a given time
system.gpu.shader_cores00.lsq.warpInstBufActive::13            0                       # Histogram of number of active warp inst buffers at a given time
system.gpu.shader_cores00.lsq.warpInstBufActive::14            0                       # Histogram of number of active warp inst buffers at a given time
system.gpu.shader_cores00.lsq.warpInstBufActive::15            0                       # Histogram of number of active warp inst buffers at a given time
system.gpu.shader_cores00.lsq.warpInstBufActive::16            0                       # Histogram of number of active warp inst buffers at a given time
system.gpu.shader_cores00.lsq.warpInstBufActive::17            0                       # Histogram of number of active warp inst buffers at a given time
system.gpu.shader_cores00.lsq.warpInstBufActive::18            0                       # Histogram of number of active warp inst buffers at a given time
system.gpu.shader_cores00.lsq.warpInstBufActive::19            0                       # Histogram of number of active warp inst buffers at a given time
system.gpu.shader_cores00.lsq.warpInstBufActive::20            0                       # Histogram of number of active warp inst buffers at a given time
system.gpu.shader_cores00.lsq.warpInstBufActive::21            0                       # Histogram of number of active warp inst buffers at a given time
system.gpu.shader_cores00.lsq.warpInstBufActive::22            0                       # Histogram of number of active warp inst buffers at a given time
system.gpu.shader_cores00.lsq.warpInstBufActive::23            0                       # Histogram of number of active warp inst buffers at a given time
system.gpu.shader_cores00.lsq.warpInstBufActive::24            0                       # Histogram of number of active warp inst buffers at a given time
system.gpu.shader_cores00.lsq.warpInstBufActive::25            0                       # Histogram of number of active warp inst buffers at a given time
system.gpu.shader_cores00.lsq.warpInstBufActive::26            0                       # Histogram of number of active warp inst buffers at a given time
system.gpu.shader_cores00.lsq.warpInstBufActive::27            0                       # Histogram of number of active warp inst buffers at a given time
system.gpu.shader_cores00.lsq.warpInstBufActive::28            0                       # Histogram of number of active warp inst buffers at a given time
system.gpu.shader_cores00.lsq.warpInstBufActive::29            0                       # Histogram of number of active warp inst buffers at a given time
system.gpu.shader_cores00.lsq.warpInstBufActive::30            0                       # Histogram of number of active warp inst buffers at a given time
system.gpu.shader_cores00.lsq.warpInstBufActive::31            0                       # Histogram of number of active warp inst buffers at a given time
system.gpu.shader_cores00.lsq.warpInstBufActive::32            0                       # Histogram of number of active warp inst buffers at a given time
system.gpu.shader_cores00.lsq.warpInstBufActive::33            0                       # Histogram of number of active warp inst buffers at a given time
system.gpu.shader_cores00.lsq.warpInstBufActive::34            0                       # Histogram of number of active warp inst buffers at a given time
system.gpu.shader_cores00.lsq.warpInstBufActive::35            0                       # Histogram of number of active warp inst buffers at a given time
system.gpu.shader_cores00.lsq.warpInstBufActive::36            0                       # Histogram of number of active warp inst buffers at a given time
system.gpu.shader_cores00.lsq.warpInstBufActive::37            0                       # Histogram of number of active warp inst buffers at a given time
system.gpu.shader_cores00.lsq.warpInstBufActive::38            0                       # Histogram of number of active warp inst buffers at a given time
system.gpu.shader_cores00.lsq.warpInstBufActive::39            0                       # Histogram of number of active warp inst buffers at a given time
system.gpu.shader_cores00.lsq.warpInstBufActive::40            0                       # Histogram of number of active warp inst buffers at a given time
system.gpu.shader_cores00.lsq.warpInstBufActive::41            0                       # Histogram of number of active warp inst buffers at a given time
system.gpu.shader_cores00.lsq.warpInstBufActive::42            0                       # Histogram of number of active warp inst buffers at a given time
system.gpu.shader_cores00.lsq.warpInstBufActive::43            0                       # Histogram of number of active warp inst buffers at a given time
system.gpu.shader_cores00.lsq.warpInstBufActive::44            0                       # Histogram of number of active warp inst buffers at a given time
system.gpu.shader_cores00.lsq.warpInstBufActive::45            0                       # Histogram of number of active warp inst buffers at a given time
system.gpu.shader_cores00.lsq.warpInstBufActive::46            0                       # Histogram of number of active warp inst buffers at a given time
system.gpu.shader_cores00.lsq.warpInstBufActive::47            0                       # Histogram of number of active warp inst buffers at a given time
system.gpu.shader_cores00.lsq.warpInstBufActive::48            0                       # Histogram of number of active warp inst buffers at a given time
system.gpu.shader_cores00.lsq.warpInstBufActive::49            0                       # Histogram of number of active warp inst buffers at a given time
system.gpu.shader_cores00.lsq.warpInstBufActive::50            0                       # Histogram of number of active warp inst buffers at a given time
system.gpu.shader_cores00.lsq.warpInstBufActive::51            0                       # Histogram of number of active warp inst buffers at a given time
system.gpu.shader_cores00.lsq.warpInstBufActive::52            0                       # Histogram of number of active warp inst buffers at a given time
system.gpu.shader_cores00.lsq.warpInstBufActive::53            0                       # Histogram of number of active warp inst buffers at a given time
system.gpu.shader_cores00.lsq.warpInstBufActive::54            0                       # Histogram of number of active warp inst buffers at a given time
system.gpu.shader_cores00.lsq.warpInstBufActive::55            0                       # Histogram of number of active warp inst buffers at a given time
system.gpu.shader_cores00.lsq.warpInstBufActive::56            0                       # Histogram of number of active warp inst buffers at a given time
system.gpu.shader_cores00.lsq.warpInstBufActive::57            0                       # Histogram of number of active warp inst buffers at a given time
system.gpu.shader_cores00.lsq.warpInstBufActive::58            0                       # Histogram of number of active warp inst buffers at a given time
system.gpu.shader_cores00.lsq.warpInstBufActive::59            0                       # Histogram of number of active warp inst buffers at a given time
system.gpu.shader_cores00.lsq.warpInstBufActive::60            0                       # Histogram of number of active warp inst buffers at a given time
system.gpu.shader_cores00.lsq.warpInstBufActive::61            0                       # Histogram of number of active warp inst buffers at a given time
system.gpu.shader_cores00.lsq.warpInstBufActive::62            0                       # Histogram of number of active warp inst buffers at a given time
system.gpu.shader_cores00.lsq.warpInstBufActive::63            0                       # Histogram of number of active warp inst buffers at a given time
system.gpu.shader_cores00.lsq.warpInstBufActive::64            0                       # Histogram of number of active warp inst buffers at a given time
system.gpu.shader_cores00.lsq.warpInstBufActive::total            0                       # Histogram of number of active warp inst buffers at a given time
system.gpu.shader_cores00.lsq.cacheAccesses            0                       # Average number of concurrent outstanding cache accesses
[...]
system.ruby.ST.Directory.miss_type_mach_latency_hist::stdev   146.141013                      
system.ruby.ST.Directory.miss_type_mach_latency_hist |         103     50.49%     50.49% |          67     32.84%     83.33% |          23     11.27%     94.61% |           0      0.00%     94.61% |           3      1.47%     96.08% |           4      1.96%     98.04% |           4      1.96%    100.00% |           0      0.00%    100.00% |           0      0.00%    100.00% |           0      0.00%    100.00%
system.ruby.ST.Directory.miss_type_mach_latency_hist::total          204                      
system.ruby.IFETCH.L1Cache.miss_type_mach_latency_hist::bucket_size            8                      
system.ruby.IFETCH.L1Cache.miss_type_mach_latency_hist::max_bucket           79                      
system.ruby.IFETCH.L1Cache.miss_type_mach_latency_hist::samples            2                      
system.ruby.IFETCH.L1Cache.miss_type_mach_latency_hist::mean           45                      
system.ruby.IFETCH.L1Cache.miss_type_mach_latency_hist::gmean    45.000000                      
system.ruby.IFETCH.L1Cache.miss_type_mach_latency_hist |           0      0.00%      0.00% |           0      0.00%      0.00% |           0      0.00%      0.00% |           0      0.00%      0.00% |           0      0.00%      0.00% |           2    100.00%    100.00% |           0      0.00%    100.00% |           0      0.00%    100.00% |           0      0.00%    100.00% |           0      0.00%    100.00%
system.ruby.IFETCH.L1Cache.miss_type_mach_latency_hist::total            2                      
system.ruby.IFETCH.Directory.miss_type_mach_latency_hist::bucket_size          128                      
system.ruby.IFETCH.Directory.miss_type_mach_latency_hist::max_bucket         1279                      
system.ruby.IFETCH.Directory.miss_type_mach_latency_hist::samples         3221                      
system.ruby.IFETCH.Directory.miss_type_mach_latency_hist::mean    63.352996                      
system.ruby.IFETCH.Directory.miss_type_mach_latency_hist::gmean    55.942786                      
system.ruby.IFETCH.Directory.miss_type_mach_latency_hist::stdev    45.950404                      
system.ruby.IFETCH.Directory.miss_type_mach_latency_hist |        2981     92.55%     92.55% |         198      6.15%     98.70% |          32      0.99%     99.69% |           6      0.19%     99.88% |           3      0.09%     99.97% |           1      0.03%    100.00% |           0      0.00%    100.00% |           0      0.00%    100.00% |           0      0.00%    100.00% |           0      0.00%    100.00%
system.ruby.IFETCH.Directory.miss_type_mach_latency_hist::total         3221                      
system.ruby.RMW_Read.Directory.miss_type_mach_latency_hist::bucket_size           16                      
system.ruby.RMW_Read.Directory.miss_type_mach_latency_hist::max_bucket          159                      
system.ruby.RMW_Read.Directory.miss_type_mach_latency_hist::samples            1                      
system.ruby.RMW_Read.Directory.miss_type_mach_latency_hist::mean          133                      
system.ruby.RMW_Read.Directory.miss_type_mach_latency_hist::gmean          133                      
system.ruby.RMW_Read.Directory.miss_type_mach_latency_hist::stdev          nan                      
system.ruby.RMW_Read.Directory.miss_type_mach_latency_hist |           0      0.00%      0.00% |           0      0.00%      0.00% |           0      0.00%      0.00% |           0      0.00%      0.00% |           0      0.00%      0.00% |           0      0.00%      0.00% |           0      0.00%      0.00% |           0      0.00%      0.00% |           1    100.00%    100.00% |           0      0.00%    100.00%
system.ruby.RMW_Read.Directory.miss_type_mach_latency_hist::total            1                      
system.ruby.Directory_Controller.GETX            5001      0.00%      0.00%
system.ruby.Directory_Controller.PUTX            4412      0.00%      0.00%
system.ruby.Directory_Controller.Memory_Data         4896      0.00%      0.00%
system.ruby.Directory_Controller.Memory_Ack         4412      0.00%      0.00%
system.ruby.Directory_Controller.I.GETX          4896      0.00%      0.00%
system.ruby.Directory_Controller.M.GETX           105      0.00%      0.00%
system.ruby.Directory_Controller.M.PUTX          4412      0.00%      0.00%
system.ruby.Directory_Controller.IM.Memory_Data         4896      0.00%      0.00%
system.ruby.Directory_Controller.MI.Memory_Ack         4412      0.00%      0.00%
system.ruby.L1Cache_Controller.Load      |      163001     99.91%     99.91% |           0      0.00%     99.91% |          24      0.01%     99.92% |          85      0.05%     99.97% |           0      0.00%     99.97% |           0      0.00%     99.97% |           0      0.00%     99.97% |           0      0.00%     99.97% |           0      0.00%     99.97% |           0      0.00%     99.97% |           0      0.00%     99.97% |           0      0.00%     99.97% |           0      0.00%     99.97% |           0      0.00%     99.97% |           0      0.00%     99.97% |           0      0.00%     99.97% |           0      0.00%     99.97% |           0      0.00%     99.97% |          45      0.03%    100.00%
system.ruby.L1Cache_Controller.Load::total       163155                      
system.ruby.L1Cache_Controller.Ifetch    |     1028929    100.00%    100.00% |           0      0.00%    100.00% |           7      0.00%    100.00% |           7      0.00%    100.00% |           0      0.00%    100.00% |           0      0.00%    100.00% |           0      0.00%    100.00% |           0      0.00%    100.00% |           0      0.00%    100.00% |           0      0.00%    100.00% |           0      0.00%    100.00% |           0      0.00%    100.00% |           0      0.00%    100.00% |           0      0.00%    100.00% |           0      0.00%    100.00% |           0      0.00%    100.00% |           0      0.00%    100.00% |           0      0.00%    100.00% |           0      0.00%    100.00%
system.ruby.L1Cache_Controller.Ifetch::total      1028943                      
system.ruby.L1Cache_Controller.Store     |      120625     99.92%     99.92% |           0      0.00%     99.92% |           8      0.01%     99.92% |          50      0.04%     99.96% |           0      0.00%     99.96% |           0      0.00%     99.96% |           0      0.00%     99.96% |           0      0.00%     99.96% |           0      0.00%     99.96% |           0      0.00%     99.96% |           0      0.00%     99.96% |           0      0.00%     99.96% |           0      0.00%     99.96% |           0      0.00%     99.96% |           0      0.00%     99.96% |           0      0.00%     99.96% |           0      0.00%     99.96% |           0      0.00%     99.96% |          44      0.04%    100.00%
system.ruby.L1Cache_Controller.Store::total       120727                      
system.ruby.L1Cache_Controller.Data      |        4868     97.34%     97.34% |           0      0.00%     97.34% |          19      0.38%     97.72% |          30      0.60%     98.32% |           0      0.00%     98.32% |           0      0.00%     98.32% |           0      0.00%     98.32% |           0      0.00%     98.32% |           0      0.00%     98.32% |           0      0.00%     98.32% |           0      0.00%     98.32% |           0      0.00%     98.32% |           0      0.00%     98.32% |           0      0.00%     98.32% |           0      0.00%     98.32% |           0      0.00%     98.32% |           0      0.00%     98.32% |           0      0.00%     98.32% |          84      1.68%    100.00%
system.ruby.L1Cache_Controller.Data::total         5001                      
system.ruby.L1Cache_Controller.Fwd_GETX  |          45     42.86%     42.86% |           0      0.00%     42.86% |          13     12.38%     55.24% |          15     14.29%     69.52% |           0      0.00%     69.52% |           0      0.00%     69.52% |           0      0.00%     69.52% |           0      0.00%     69.52% |           0      0.00%     69.52% |           0      0.00%     69.52% |           0      0.00%     69.52% |           0      0.00%     69.52% |           0      0.00%     69.52% |           0      0.00%     69.52% |           0      0.00%     69.52% |           0      0.00%     69.52% |           0      0.00%     69.52% |           0      0.00%     69.52% |          32     30.48%    100.00%
system.ruby.L1Cache_Controller.Fwd_GETX::total          105                      
system.ruby.L1Cache_Controller.Replacement |        4367     98.67%     98.67% |           0      0.00%     98.67% |           0      0.00%     98.67% |           0      0.00%     98.67% |           0      0.00%     98.67% |           0      0.00%     98.67% |           0      0.00%     98.67% |           0      0.00%     98.67% |           0      0.00%     98.67% |           0      0.00%     98.67% |           0      0.00%     98.67% |           0      0.00%     98.67% |           0      0.00%     98.67% |           0      0.00%     98.67% |           0      0.00%     98.67% |           0      0.00%     98.67% |           0      0.00%     98.67% |           0      0.00%     98.67% |          59      1.33%    100.00%
system.ruby.L1Cache_Controller.Replacement::total         4426                      
system.ruby.L1Cache_Controller.Writeback_Ack |        4366     98.96%     98.96% |           0      0.00%     98.96% |           0      0.00%     98.96% |           0      0.00%     98.96% |           0      0.00%     98.96% |           0      0.00%     98.96% |           0      0.00%     98.96% |           0      0.00%     98.96% |           0      0.00%     98.96% |           0      0.00%     98.96% |           0      0.00%     98.96% |           0      0.00%     98.96% |           0      0.00%     98.96% |           0      0.00%     98.96% |           0      0.00%     98.96% |           0      0.00%     98.96% |           0      0.00%     98.96% |           0      0.00%     98.96% |          46      1.04%    100.00%
system.ruby.L1Cache_Controller.Writeback_Ack::total         4412                      
system.ruby.L1Cache_Controller.I.Load    |        1470     94.96%     94.96% |           0      0.00%     94.96% |          11      0.71%     95.67% |          22      1.42%     97.09% |           0      0.00%     97.09% |           0      0.00%     97.09% |           0      0.00%     97.09% |           0      0.00%     97.09% |           0      0.00%     97.09% |           0      0.00%     97.09% |           0      0.00%     97.09% |           0      0.00%     97.09% |           0      0.00%     97.09% |           0      0.00%     97.09% |           0      0.00%     97.09% |           0      0.00%     97.09% |           0      0.00%     97.09% |           0      0.00%     97.09% |          45      2.91%    100.00%
system.ruby.L1Cache_Controller.I.Load::total         1548                      
system.ruby.L1Cache_Controller.I.Ifetch  |        3209     99.57%     99.57% |           0      0.00%     99.57% |           7      0.22%     99.78% |           7      0.22%    100.00% |           0      0.00%    100.00% |           0      0.00%    100.00% |           0      0.00%    100.00% |           0      0.00%    100.00% |           0      0.00%    100.00% |           0      0.00%    100.00% |           0      0.00%    100.00% |           0      0.00%    100.00% |           0      0.00%    100.00% |           0      0.00%    100.00% |           0      0.00%    100.00% |           0      0.00%    100.00% |           0      0.00%    100.00% |           0      0.00%    100.00% |           0      0.00%    100.00%
system.ruby.L1Cache_Controller.I.Ifetch::total         3223                      
system.ruby.L1Cache_Controller.I.Store   |         189     82.17%     82.17% |           0      0.00%     82.17% |           1      0.43%     82.61% |           1      0.43%     83.04% |           0      0.00%     83.04% |           0      0.00%     83.04% |           0      0.00%     83.04% |           0      0.00%     83.04% |           0      0.00%     83.04% |           0      0.00%     83.04% |           0      0.00%     83.04% |           0      0.00%     83.04% |           0      0.00%     83.04% |           0      0.00%     83.04% |           0      0.00%     83.04% |           0      0.00%     83.04% |           0      0.00%     83.04% |           0      0.00%     83.04% |          39     16.96%    100.00%
system.ruby.L1Cache_Controller.I.Store::total          230                      
system.ruby.L1Cache_Controller.I.Replacement |           1      7.14%      7.14% |           0      0.00%      7.14% |           0      0.00%      7.14% |           0      0.00%      7.14% |           0      0.00%      7.14% |           0      0.00%      7.14% |           0      0.00%      7.14% |           0      0.00%      7.14% |           0      0.00%      7.14% |           0      0.00%      7.14% |           0      0.00%      7.14% |           0      0.00%      7.14% |           0      0.00%      7.14% |           0      0.00%      7.14% |           0      0.00%      7.14% |           0      0.00%      7.14% |           0      0.00%      7.14% |           0      0.00%      7.14% |          13     92.86%    100.00%
system.ruby.L1Cache_Controller.I.Replacement::total           14                      
system.ruby.L1Cache_Controller.M.Load    |      161531     99.95%     99.95% |           0      0.00%     99.95% |          13      0.01%     99.96% |          63      0.04%    100.00% |           0      0.00%    100.00% |           0      0.00%    100.00% |           0      0.00%    100.00% |           0      0.00%    100.00% |           0      0.00%    100.00% |           0      0.00%    100.00% |           0      0.00%    100.00% |           0      0.00%    100.00% |           0      0.00%    100.00% |           0      0.00%    100.00% |           0      0.00%    100.00% |           0      0.00%    100.00% |           0      0.00%    100.00% |           0      0.00%    100.00% |           0      0.00%    100.00%
system.ruby.L1Cache_Controller.M.Load::total       161607                      
system.ruby.L1Cache_Controller.M.Ifetch  |     1025720    100.00%    100.00% |           0      0.00%    100.00% |           0      0.00%    100.00% |           0      0.00%    100.00% |           0      0.00%    100.00% |           0      0.00%    100.00% |           0      0.00%    100.00% |           0      0.00%    100.00% |           0      0.00%    100.00% |           0      0.00%    100.00% |           0      0.00%    100.00% |           0      0.00%    100.00% |           0      0.00%    100.00% |           0      0.00%    100.00% |           0      0.00%    100.00% |           0      0.00%    100.00% |           0      0.00%    100.00% |           0      0.00%    100.00% |           0      0.00%    100.00%
system.ruby.L1Cache_Controller.M.Ifetch::total      1025720                      
system.ruby.L1Cache_Controller.M.Store   |      120436     99.95%     99.95% |           0      0.00%     99.95% |           7      0.01%     99.96% |          49      0.04%    100.00% |           0      0.00%    100.00% |           0      0.00%    100.00% |           0      0.00%    100.00% |           0      0.00%    100.00% |           0      0.00%    100.00% |           0      0.00%    100.00% |           0      0.00%    100.00% |           0      0.00%    100.00% |           0      0.00%    100.00% |           0      0.00%    100.00% |           0      0.00%    100.00% |           0      0.00%    100.00% |           0      0.00%    100.00% |           0      0.00%    100.00% |           5      0.00%    100.00%
system.ruby.L1Cache_Controller.M.Store::total       120497                      
system.ruby.L1Cache_Controller.M.Fwd_GETX |          45     42.86%     42.86% |           0      0.00%     42.86% |          13     12.38%     55.24% |          15     14.29%     69.52% |           0      0.00%     69.52% |           0      0.00%     69.52% |           0      0.00%     69.52% |           0      0.00%     69.52% |           0      0.00%     69.52% |           0      0.00%     69.52% |           0      0.00%     69.52% |           0      0.00%     69.52% |           0      0.00%     69.52% |           0      0.00%     69.52% |           0      0.00%     69.52% |           0      0.00%     69.52% |           0      0.00%     69.52% |           0      0.00%     69.52% |          32     30.48%    100.00%
system.ruby.L1Cache_Controller.M.Fwd_GETX::total          105                      
system.ruby.L1Cache_Controller.M.Replacement |        4366     98.96%     98.96% |           0      0.00%     98.96% |           0      0.00%     98.96% |           0      0.00%     98.96% |           0      0.00%     98.96% |           0      0.00%     98.96% |           0      0.00%     98.96% |           0      0.00%     98.96% |           0      0.00%     98.96% |           0      0.00%     98.96% |           0      0.00%     98.96% |           0      0.00%     98.96% |           0      0.00%     98.96% |           0      0.00%     98.96% |           0      0.00%     98.96% |           0      0.00%     98.96% |           0      0.00%     98.96% |           0      0.00%     98.96% |          46      1.04%    100.00%
system.ruby.L1Cache_Controller.M.Replacement::total         4412                      
system.ruby.L1Cache_Controller.MI.Writeback_Ack |        4366     98.96%     98.96% |           0      0.00%     98.96% |           0      0.00%     98.96% |           0      0.00%     98.96% |           0      0.00%     98.96% |           0      0.00%     98.96% |           0      0.00%     98.96% |           0      0.00%     98.96% |           0      0.00%     98.96% |           0      0.00%     98.96% |           0      0.00%     98.96% |           0      0.00%     98.96% |           0      0.00%     98.96% |           0      0.00%     98.96% |           0      0.00%     98.96% |           0      0.00%     98.96% |           0      0.00%     98.96% |           0      0.00%     98.96% |          46      1.04%    100.00%
system.ruby.L1Cache_Controller.MI.Writeback_Ack::total         4412                      
system.ruby.L1Cache_Controller.IS.Data   |        4679     98.07%     98.07% |           0      0.00%     98.07% |          18      0.38%     98.45% |          29      0.61%     99.06% |           0      0.00%     99.06% |           0      0.00%     99.06% |           0      0.00%     99.06% |           0      0.00%     99.06% |           0      0.00%     99.06% |           0      0.00%     99.06% |           0      0.00%     99.06% |           0      0.00%     99.06% |           0      0.00%     99.06% |           0      0.00%     99.06% |           0      0.00%     99.06% |           0      0.00%     99.06% |           0      0.00%     99.06% |           0      0.00%     99.06% |          45      0.94%    100.00%
system.ruby.L1Cache_Controller.IS.Data::total         4771                      
system.ruby.L1Cache_Controller.IM.Data   |         189     82.17%     82.17% |           0      0.00%     82.17% |           1      0.43%     82.61% |           1      0.43%     83.04% |           0      0.00%     83.04% |           0      0.00%     83.04% |           0      0.00%     83.04% |           0      0.00%     83.04% |           0      0.00%     83.04% |           0      0.00%     83.04% |           0      0.00%     83.04% |           0      0.00%     83.04% |           0      0.00%     83.04% |           0      0.00%     83.04% |           0      0.00%     83.04% |           0      0.00%     83.04% |           0      0.00%     83.04% |           0      0.00%     83.04% |          39     16.96%    100.00%
system.ruby.L1Cache_Controller.IM.Data::total          230                      

---------- End Simulation Statistics   ----------
