
---------- Begin Simulation Statistics ----------
sim_seconds                                  0.001377                       # Number of seconds simulated
sim_ticks                                  1376828500                       # Number of ticks simulated
final_tick                                 1376828500                       # Number of ticks from beginning of simulation (restored from checkpoints and never reset)
sim_freq                                 1000000000000                       # Frequency of simulated ticks
host_inst_rate                                 328297                       # Simulator instruction rate (inst/s)
host_op_rate                                   640385                       # Simulator op (including micro ops) rate (op/s)
host_tick_rate                              622268154                       # Simulator tick rate (ticks/s)
host_mem_usage                                4507432                       # Number of bytes of host memory used
host_seconds                                     2.21                       # Real time elapsed on the host
sim_insts                                      726381                       # Number of instructions simulated
sim_ops                                       1416905                       # Number of ops (including micro ops) simulated
system.voltage_domain.voltage                       1                       # Voltage in Volts
system.clk_domain.clock                          1000                       # Clock period in ticks
system.mem_ctrls.bytes_read::ruby.dir_cntrl0       452736                       # Number of bytes read from this memory
system.mem_ctrls.bytes_read::total             452736                       # Number of bytes read from this memory
system.mem_ctrls.bytes_written::ruby.dir_cntrl0       391552                       # Number of bytes written to this memory
system.mem_ctrls.bytes_written::total          391552                       # Number of bytes written to this memory
system.mem_ctrls.num_reads::ruby.dir_cntrl0         3537                       # Number of read requests responded to by this memory
system.mem_ctrls.num_reads::total                3537                       # Number of read requests responded to by this memory
system.mem_ctrls.num_writes::ruby.dir_cntrl0         3059                       # Number of write requests responded to by this memory
system.mem_ctrls.num_writes::total               3059                       # Number of write requests responded to by this memory
system.mem_ctrls.bw_read::ruby.dir_cntrl0    328825268                       # Total read bandwidth from this memory (bytes/s)
system.mem_ctrls.bw_read::total             328825268                       # Total read bandwidth from this memory (bytes/s)
system.mem_ctrls.bw_write::ruby.dir_cntrl0    284386908                       # Write bandwidth from this memory (bytes/s)
system.mem_ctrls.bw_write::total            284386908                       # Write bandwidth from this memory (bytes/s)
system.mem_ctrls.bw_total::ruby.dir_cntrl0    613212176                       # Total bandwidth to/from this memory (bytes/s)
system.mem_ctrls.bw_total::total            613212176                       # Total bandwidth to/from this memory (bytes/s)
system.mem_ctrls.readReqs                        3537                       # Number of read requests accepted
system.mem_ctrls.writeReqs                       3059                       # Number of write requests accepted
system.mem_ctrls.readBursts                      7074                       # Number of DRAM read bursts, including those serviced by the write queue
system.mem_ctrls.writeBursts                     6118                       # Number of DRAM write bursts, including those merged in the write queue
system.mem_ctrls.bytesReadDRAM                 114112                       # Total number of bytes read from DRAM
system.mem_ctrls.bytesReadWrQ                  338624                       # Total number of bytes read from write queue
system.mem_ctrls.bytesWritten                   60416                       # Total number of bytes written to DRAM
system.mem_ctrls.bytesReadSys                  452736                       # Total read bytes from the system interface side
system.mem_ctrls.bytesWrittenSys               391552                       # Total written bytes from the system interface side
system.mem_ctrls.servicedByWrQ                   5291                       # Number of DRAM read bursts serviced by the write queue
system.mem_ctrls.mergedWrBursts                  5148                       # Number of DRAM write bursts merged with an existing one
system.mem_ctrls.neitherReadNorWriteReqs            0                       # Number of requests that are neither read nor write
system.mem_ctrls.perBankRdBursts::0                92                       # Per bank write bursts
system.mem_ctrls.perBankRdBursts::1                86                       # Per bank write bursts
system.mem_ctrls.perBankRdBursts::2                82                       # Per bank write bursts
system.mem_ctrls.perBankRdBursts::3               103                       # Per bank write bursts
system.mem_ctrls.perBankRdBursts::4                62                       # Per bank write bursts
system.mem_ctrls.perBankRdBursts::5                32                       # Per bank write bursts
system.mem_ctrls.perBankRdBursts::6               200                       # Per bank write bursts
system.mem_ctrls.perBankRdBursts::7               154                       # Per bank write bursts
system.mem_ctrls.perBankRdBursts::8               206                       # Per bank write bursts
system.mem_ctrls.perBankRdBursts::9               114                       # Per bank write bursts
system.mem_ctrls.perBankRdBursts::10              100                       # Per bank write bursts
system.mem_ctrls.perBankRdBursts::11              186                       # Per bank write bursts
system.mem_ctrls.perBankRdBursts::12              148                       # Per bank write bursts
system.mem_ctrls.perBankRdBursts::13              128                       # Per bank write bursts
system.mem_ctrls.perBankRdBursts::14               54                       # Per bank write bursts
system.mem_ctrls.perBankRdBursts::15               36                       # Per bank write bursts
system.mem_ctrls.perBankWrBursts::0                38                       # Per bank write bursts
system.mem_ctrls.perBankWrBursts::1                28                       # Per bank write bursts
system.mem_ctrls.perBankWrBursts::2                30                       # Per bank write bursts
system.mem_ctrls.perBankWrBursts::3                75                       # Per bank write bursts
system.mem_ctrls.perBankWrBursts::4                40                       # Per bank write bursts
system.mem_ctrls.perBankWrBursts::5                18                       # Per bank write bursts
system.mem_ctrls.perBankWrBursts::6               136                       # Per bank write bursts
system.mem_ctrls.perBankWrBursts::7                86                       # Per bank write bursts
system.mem_ctrls.perBankWrBursts::8               131                       # Per bank write bursts
system.mem_ctrls.perBankWrBursts::9                40                       # Per bank write bursts
system.mem_ctrls.perBankWrBursts::10               40                       # Per bank write bursts
system.mem_ctrls.perBankWrBursts::11               60                       # Per bank write bursts
system.mem_ctrls.perBankWrBursts::12               84                       # Per bank write bursts
system.mem_ctrls.perBankWrBursts::13               48                       # Per bank write bursts
system.mem_ctrls.perBankWrBursts::14               36                       # Per bank write bursts
system.mem_ctrls.perBankWrBursts::15               54                       # Per bank write bursts
system.mem_ctrls.numRdRetry                         0                       # Number of times read queue was full causing retry
system.mem_ctrls.numWrRetry                         0                       # Number of times write queue was full causing retry
system.mem_ctrls.totGap                    1376739500                       # Total gap between requests
system.mem_ctrls.readPktSize::0                     0                       # Read request sizes (log2)
system.mem_ctrls.readPktSize::1                     0                       # Read request sizes (log2)
system.mem_ctrls.readPktSize::2                     0                       # Read request sizes (log2)
system.mem_ctrls.readPktSize::3                     0                       # Read request sizes (log2)
system.mem_ctrls.readPktSize::4                     0                       # Read request sizes (log2)
system.mem_ctrls.readPktSize::5                     0                       # Read request sizes (log2)
system.mem_ctrls.readPktSize::6                  7074                       # Read request sizes (log2)
system.mem_ctrls.writePktSize::0                    0                       # Write request sizes (log2)
system.mem_ctrls.writePktSize::1                    0                       # Write request sizes (log2)
system.mem_ctrls.writePktSize::2                    0                       # Write request sizes (log2)
system.mem_ctrls.writePktSize::3                    0                       # Write request sizes (log2)
system.mem_ctrls.writePktSize::4                    0                       # Write request sizes (log2)
system.mem_ctrls.writePktSize::5                    0                       # Write request sizes (log2)
system.mem_ctrls.writePktSize::6                 6118                       # Write request sizes (log2)
system.mem_ctrls.rdQLenPdf::0                     888                       # What read queue length does an incoming req see
system.mem_ctrls.rdQLenPdf::1                     887                       # What read queue length does an incoming req see
system.mem_ctrls.rdQLenPdf::2                       4                       # What read queue length does an incoming req see
system.mem_ctrls.rdQLenPdf::3                       4                       # What read queue length does an incoming req see
system.mem_ctrls.rdQLenPdf::4                       0                       # What read queue length does an incoming req see
system.mem_ctrls.rdQLenPdf::5                       0                       # What read queue length does an incoming req see
system.mem_ctrls.rdQLenPdf::6                       0                       # What read queue length does an incoming req see
system.mem_ctrls.rdQLenPdf::7                       0                       # What read queue length does an incoming req see
system.mem_ctrls.rdQLenPdf::8                       0                       # What read queue length does an incoming req see
system.mem_ctrls.rdQLenPdf::9                       0                       # What read queue length does an incoming req see
system.mem_ctrls.rdQLenPdf::10                      0                       # What read queue length does an incoming req see
system.mem_ctrls.rdQLenPdf::11                      0                       # What read queue length does an incoming req see
system.mem_ctrls.rdQLenPdf::12                      0                       # What read queue length does an incoming req see
system.mem_ctrls.rdQLenPdf::13                      0                       # What read queue length does an incoming req see
system.mem_ctrls.rdQLenPdf::14                      0                       # What read queue length does an incoming req see
system.mem_ctrls.rdQLenPdf::15                      0                       # What read queue length does an incoming req see
system.mem_ctrls.rdQLenPdf::16                      0                       # What read queue length does an incoming req see
system.mem_ctrls.rdQLenPdf::17                      0                       # What read queue length does an incoming req see
system.mem_ctrls.rdQLenPdf::18                      0                       # What read queue length does an incoming req see
system.mem_ctrls.rdQLenPdf::19                      0                       # What read queue length does an incoming req see
system.mem_ctrls.rdQLenPdf::20                      0                       # What read queue length does an incoming req see
system.mem_ctrls.rdQLenPdf::21                      0                       # What read queue length does an incoming req see
system.mem_ctrls.rdQLenPdf::22                      0                       # What read queue length does an incoming req see
system.mem_ctrls.rdQLenPdf::23                      0                       # What read queue length does an incoming req see
system.mem_ctrls.rdQLenPdf::24                      0                       # What read queue length does an incoming req see
system.mem_ctrls.rdQLenPdf::25                      0                       # What read queue length does an incoming req see
system.mem_ctrls.rdQLenPdf::26                      0                       # What read queue length does an incoming req see
system.mem_ctrls.rdQLenPdf::27                      0                       # What read queue length does an incoming req see
system.mem_ctrls.rdQLenPdf::28                      0                       # What read queue length does an incoming req see
system.mem_ctrls.rdQLenPdf::29                      0                       # What read queue length does an incoming req see
system.mem_ctrls.rdQLenPdf::30                      0                       # What read queue length does an incoming req see
system.mem_ctrls.rdQLenPdf::31                      0                       # What read queue length does an incoming req see
system.mem_ctrls.wrQLenPdf::0                       1                       # What write queue length does an incoming req see
system.mem_ctrls.wrQLenPdf::1                       1                       # What write queue length does an incoming req see
system.mem_ctrls.wrQLenPdf::2                       1                       # What write queue length does an incoming req see
system.mem_ctrls.wrQLenPdf::3                       1                       # What write queue length does an incoming req see
system.mem_ctrls.wrQLenPdf::4                       1                       # What write queue length does an incoming req see
system.mem_ctrls.wrQLenPdf::5                       1                       # What write queue length does an incoming req see
system.mem_ctrls.wrQLenPdf::6                       1                       # What write queue length does an incoming req see
system.mem_ctrls.wrQLenPdf::7                       1                       # What write queue length does an incoming req see
system.mem_ctrls.wrQLenPdf::8                       1                       # What write queue length does an incoming req see
system.mem_ctrls.wrQLenPdf::9                       1                       # What write queue length does an incoming req see
system.mem_ctrls.wrQLenPdf::10                      1                       # What write queue length does an incoming req see
system.mem_ctrls.wrQLenPdf::11                      1                       # What write queue length does an incoming req see
system.mem_ctrls.wrQLenPdf::12                      1                       # What write queue length does an incoming req see
system.mem_ctrls.wrQLenPdf::13                      1                       # What write queue length does an incoming req see
system.mem_ctrls.wrQLenPdf::14                      1                       # What write queue length does an incoming req see
system.mem_ctrls.wrQLenPdf::15                      7                       # What write queue length does an incoming req see
system.mem_ctrls.wrQLenPdf::16                      7                       # What write queue length does an incoming req see
system.mem_ctrls.wrQLenPdf::17                     43                       # What write queue length does an incoming req see
system.mem_ctrls.wrQLenPdf::18                     59                       # What write queue length does an incoming req see
system.mem_ctrls.wrQLenPdf::19                     59                       # What write queue length does an incoming req see
system.mem_ctrls.wrQLenPdf::20                     59                       # What write queue length does an incoming req see
system.mem_ctrls.wrQLenPdf::21                     59                       # What write queue length does an incoming req see
system.mem_ctrls.wrQLenPdf::22                     60                       # What write queue length does an incoming req see
system.mem_ctrls.wrQLenPdf::23                     60                       # What write queue length does an incoming req see
system.mem_ctrls.wrQLenPdf::24                     59                       # What write queue length does an incoming req see
system.mem_ctrls.wrQLenPdf::25                     59                       # What write queue length does an incoming req see
system.mem_ctrls.wrQLenPdf::26                     58                       # What write queue length does an incoming req see
system.mem_ctrls.wrQLenPdf::27                     58                       # What write queue length does an incoming req see
system.mem_ctrls.wrQLenPdf::28                     58                       # What write queue length does an incoming req see
system.mem_ctrls.wrQLenPdf::29                     58                       # What write queue length does an incoming req see
system.mem_ctrls.wrQLenPdf::30                     58                       # What write queue length does an incoming req see
system.mem_ctrls.wrQLenPdf::31                     58                       # What write queue length does an incoming req see
system.mem_ctrls.wrQLenPdf::32                     58                       # What write queue length does an incoming req see
system.mem_ctrls.wrQLenPdf::33                     18                       # What write queue length does an incoming req see
system.mem_ctrls.wrQLenPdf::34                      0                       # What write queue length does an incoming req see
system.mem_ctrls.wrQLenPdf::35                      0                       # What write queue length does an incoming req see
system.mem_ctrls.wrQLenPdf::36                      0                       # What write queue length does an incoming req see
system.mem_ctrls.wrQLenPdf::37                      0                       # What write queue length does an incoming req see
system.mem_ctrls.wrQLenPdf::38                      0                       # What write queue length does an incoming req see
system.mem_ctrls.wrQLenPdf::39                      0                       # What write queue length does an incoming req see
system.mem_ctrls.wrQLenPdf::40                      0                       # What write queue length does an incoming req see
system.mem_ctrls.wrQLenPdf::41                      0                       # What write queue length does an incoming req see
system.mem_ctrls.wrQLenPdf::42                      0                       # What write queue length does an incoming req see
system.mem_ctrls.wrQLenPdf::43                      0                       # What write queue length does an incoming req see
system.mem_ctrls.wrQLenPdf::44                      0                       # What write queue length does an incoming req see
system.mem_ctrls.wrQLenPdf::45                      0                       # What write queue length does an incoming req see
system.mem_ctrls.wrQLenPdf::46                      0                       # What write queue length does an incoming req see
system.mem_ctrls.wrQLenPdf::47                      0                       # What write queue length does an incoming req see
system.mem_ctrls.wrQLenPdf::48                      0                       # What write queue length does an incoming req see
system.mem_ctrls.wrQLenPdf::49                      0                       # What write queue length does an incoming req see
system.mem_ctrls.wrQLenPdf::50                      0                       # What write queue length does an incoming req see
system.mem_ctrls.wrQLenPdf::51                      0                       # What write queue length does an incoming req see
system.mem_ctrls.wrQLenPdf::52                      0                       # What write queue length does an incoming req see
system.mem_ctrls.wrQLenPdf::53                      0                       # What write queue length does an incoming req see
system.mem_ctrls.wrQLenPdf::54                      0                       # What write queue length does an incoming req see
system.mem_ctrls.wrQLenPdf::55                      0                       # What write queue length does an incoming req see
system.mem_ctrls.wrQLenPdf::56                      0                       # What write queue length does an incoming req see
system.mem_ctrls.wrQLenPdf::57                      0                       # What write queue length does an incoming req see
system.mem_ctrls.wrQLenPdf::58                      0                       # What write queue length does an incoming req see
system.mem_ctrls.wrQLenPdf::59                      0                       # What write queue length does an incoming req see
system.mem_ctrls.wrQLenPdf::60                      0                       # What write queue length does an incoming req see
system.mem_ctrls.wrQLenPdf::61                      0                       # What write queue length does an incoming req see
system.mem_ctrls.wrQLenPdf::62                      0                       # What write queue length does an incoming req see
system.mem_ctrls.wrQLenPdf::63                      0                       # What write queue length does an incoming req see
system.mem_ctrls.bytesPerActivate::samples          622                       # Bytes accessed per row activation
system.mem_ctrls.bytesPerActivate::mean    276.887460                       # Bytes accessed per row activation
system.mem_ctrls.bytesPerActivate::gmean   213.273347                       # Bytes accessed per row activation
system.mem_ctrls.bytesPerActivate::stdev   234.269283                       # Bytes accessed per row activation
system.mem_ctrls.bytesPerActivate::0-127           17      2.73%      2.73% # Bytes accessed per row activation
system.mem_ctrls.bytesPerActivate::128-255          320     51.45%     54.18% # Bytes accessed per row activation
system.mem_ctrls.bytesPerActivate::256-383          136     21.86%     76.05% # Bytes accessed per row activation
system.mem_ctrls.bytesPerActivate::384-511           43      6.91%     82.96% # Bytes accessed per row activation
system.mem_ctrls.bytesPerActivate::512-639           34      5.47%     88.42% # Bytes accessed per row activation
system.mem_ctrls.bytesPerActivate::640-767           20      3.22%     91.64% # Bytes accessed per row activation
system.mem_ctrls.bytesPerActivate::768-895           19      3.05%     94.69% # Bytes accessed per row activation
system.mem_ctrls.bytesPerActivate::896-1023           11      1.77%     96.46% # Bytes accessed per row activation
system.mem_ctrls.bytesPerActivate::1024-1151           22      3.54%    100.00% # Bytes accessed per row activation
system.mem_ctrls.bytesPerActivate::total          622                       # Bytes accessed per row activation
system.mem_ctrls.rdPerTurnAround::samples           58                       # Reads before turning the bus around for writes
system.mem_ctrls.rdPerTurnAround::mean      30.568966                       # Reads before turning the bus around for writes
system.mem_ctrls.rdPerTurnAround::gmean     20.491232                       # Reads before turning the bus around for writes
system.mem_ctrls.rdPerTurnAround::stdev     57.919821                       # Reads before turning the bus around for writes
system.mem_ctrls.rdPerTurnAround::0-15             16     27.59%     27.59% # Reads before turning the bus around for writes
system.mem_ctrls.rdPerTurnAround::16-31            31     53.45%     81.03% # Reads before turning the bus around for writes
system.mem_ctrls.rdPerTurnAround::32-47             7     12.07%     93.10% # Reads before turning the bus around for writes
system.mem_ctrls.rdPerTurnAround::48-63             1      1.72%     94.83% # Reads before turning the bus around for writes
system.mem_ctrls.rdPerTurnAround::64-79             1      1.72%     96.55% # Reads before turning the bus around for writes
system.mem_ctrls.rdPerTurnAround::112-127            1      1.72%     98.28% # Reads before turning the bus around for writes
system.mem_ctrls.rdPerTurnAround::432-447            1      1.72%    100.00% # Reads before turning the bus around for writes
system.mem_ctrls.rdPerTurnAround::total            58                       # Reads before turning the bus around for writes
system.mem_ctrls.wrPerTurnAround::samples           58                       # Writes before turning the bus around for reads
system.mem_ctrls.wrPerTurnAround::mean      16.275862                       # Writes before turning the bus around for reads
system.mem_ctrls.wrPerTurnAround::gmean     16.257709                       # Writes before turning the bus around for reads
system.mem_ctrls.wrPerTurnAround::stdev      0.812039                       # Writes before turning the bus around for reads
system.mem_ctrls.wrPerTurnAround::16               51     87.93%     87.93% # Writes before turning the bus around for reads
system.mem_ctrls.wrPerTurnAround::17                1      1.72%     89.66% # Writes before turning the bus around for reads
system.mem_ctrls.wrPerTurnAround::18                4      6.90%     96.55% # Writes before turning the bus around for reads
system.mem_ctrls.wrPerTurnAround::19                1      1.72%     98.28% # Writes before turning the bus around for reads
system.mem_ctrls.wrPerTurnAround::20                1      1.72%    100.00% # Writes before turning the bus around for reads
system.mem_ctrls.wrPerTurnAround::total            58                       # Writes before turning the bus around for reads
system.mem_ctrls.totQLat                     34350500                       # Total ticks spent queuing
system.mem_ctrls.totMemAccLat                67781750                       # Total ticks spent from burst creation until serviced by the DRAM
system.mem_ctrls.totBusLat                    8915000                       # Total ticks spent in databus transfers
system.mem_ctrls.avgQLat                     19265.56                       # Average queueing delay per DRAM burst
system.mem_ctrls.avgBusLat                    5000.00                       # Average bus latency per DRAM burst
system.mem_ctrls.avgMemAccLat                38015.56                       # Average memory access latency per DRAM burst
system.mem_ctrls.avgRdBW                        82.88                       # Average DRAM read bandwidth in MiByte/s
system.mem_ctrls.avgWrBW                        43.88                       # Average achieved write bandwidth in MiByte/s
system.mem_ctrls.avgRdBWSys                    328.83                       # Average system read bandwidth in MiByte/s
system.mem_ctrls.avgWrBWSys                    284.39                       # Average system write bandwidth in MiByte/s
system.mem_ctrls.peakBW                      12800.00                       # Theoretical peak bandwidth in MiByte/s
system.mem_ctrls.busUtil                         0.99                       # Data bus utilization in percentage
system.mem_ctrls.busUtilRead                     0.65                       # Data bus utilization in percentage for reads
system.mem_ctrls.busUtilWrite                    0.34                       # Data bus utilization in percentage for writes
system.mem_ctrls.avgRdQLen                       2.00                       # Average read queue length when enqueuing
system.mem_ctrls.avgWrQLen                      27.15                       # Average write queue length when enqueuing
system.mem_ctrls.readRowHits                     1417                       # Number of row buffer hits during reads
system.mem_ctrls.writeRowHits                     677                       # Number of row buffer hits during writes
system.mem_ctrls.readRowHitRate                 79.47                       # Row buffer hit rate for reads
system.mem_ctrls.writeRowHitRate                69.79                       # Row buffer hit rate for writes
system.mem_ctrls.avgGap                     208723.39                       # Average gap between requests
system.mem_ctrls.pageHitRate                    76.06                       # Row buffer hit rate, read and write combined
system.mem_ctrls_0.actEnergy                  2010960                       # Energy for activate commands per rank (pJ)
system.mem_ctrls_0.preEnergy                  1097250                       # Energy for precharge commands per rank (pJ)
system.mem_ctrls_0.readEnergy                 5935800                       # Energy for read commands per rank (pJ)
system.mem_ctrls_0.writeEnergy                2715120                       # Energy for write commands per rank (pJ)
system.mem_ctrls_0.refreshEnergy             89506560                       # Energy for refresh commands per rank (pJ)
system.mem_ctrls_0.actBackEnergy            177830595                       # Energy for active background per rank (pJ)
system.mem_ctrls_0.preBackEnergy            666392250                       # Energy for precharge background per rank (pJ)
system.mem_ctrls_0.totalEnergy              945488535                       # Total energy per rank (pJ)
system.mem_ctrls_0.averagePower            689.815367                       # Core power per rank (mW)
system.mem_ctrls_0.memoryStateTime::IDLE   1108729500                       # Time in different power states
system.mem_ctrls_0.memoryStateTime::REF      45760000                       # Time in different power states
system.mem_ctrls_0.memoryStateTime::PRE_PDN            0                       # Time in different power states
system.mem_ctrls_0.memoryStateTime::ACT     217249500                       # Time in different power states
system.mem_ctrls_0.memoryStateTime::ACT_PDN            0                       # Time in different power states
system.mem_ctrls_1.actEnergy                  2464560                       # Energy for activate commands per rank (pJ)
system.mem_ctrls_1.preEnergy                  1344750                       # Energy for precharge commands per rank (pJ)
system.mem_ctrls_1.readEnergy                 7332000                       # Energy for read commands per rank (pJ)
system.mem_ctrls_1.writeEnergy                2883600                       # Energy for write commands per rank (pJ)
system.mem_ctrls_1.refreshEnergy             89506560                       # Energy for refresh commands per rank (pJ)
system.mem_ctrls_1.actBackEnergy            223018200                       # Energy for active background per rank (pJ)
system.mem_ctrls_1.preBackEnergy            626754000                       # Energy for precharge background per rank (pJ)
system.mem_ctrls_1.totalEnergy              953303670                       # Total energy per rank (pJ)
system.mem_ctrls_1.averagePower            695.517182                       # Core power per rank (mW)
system.mem_ctrls_1.memoryStateTime::IDLE   1041764250                       # Time in different power states
system.mem_ctrls_1.memoryStateTime::REF      45760000                       # Time in different power states
system.mem_ctrls_1.memoryStateTime::PRE_PDN            0                       # Time in different power states
system.mem_ctrls_1.memoryStateTime::ACT     283499750                       # Time in different power states
system.mem_ctrls_1.memoryStateTime::ACT_PDN            0                       # Time in different power states
system.ruby_clk_domain.clock                      500                       # Clock period in ticks
system.ruby.phys_mem.bytes_read::cpu.inst      7863232                       # Number of bytes read from this memory
system.ruby.phys_mem.bytes_read::cpu.data      1003531                       # Number of bytes read from this memory
system.ruby.phys_mem.bytes_read::gpu.shader_cores01.data         1824                       # Number of bytes read from this memory
system.ruby.phys_mem.bytes_read::gpu.shader_cores01.inst          112                       # Number of bytes read from this memory
system.ruby.phys_mem.bytes_read::gpu.shader_cores02.data         7232                       # Number of bytes read from this memory
system.ruby.phys_mem.bytes_read::gpu.shader_cores02.inst          112                       # Number of bytes read from this memory
system.ruby.phys_mem.bytes_read::total        8876043                       # Number of bytes read from this memory
system.ruby.phys_mem.bytes_inst_read::cpu.inst      7863232                       # Number of instructions bytes read from this memory
system.ruby.phys_mem.bytes_inst_read::gpu.shader_cores01.inst          112                       # Number of instructions bytes read from this memory
system.ruby.phys_mem.bytes_inst_read::gpu.shader_cores02.inst          112                       # Number of instructions bytes read from this memory
system.ruby.phys_mem.bytes_inst_read::total      7863456                       # Number of instructions bytes read from this memory
system.ruby.phys_mem.bytes_written::cpu.data       697011                       # Number of bytes written to this memory
system.ruby.phys_mem.bytes_written::gpu.shader_cores01.data           64                       # Number of bytes written to this memory
system.ruby.phys_mem.bytes_written::gpu.shader_cores02.data         2176                       # Number of bytes written to this memory
system.ruby.phys_mem.bytes_written::total       699251                       # Number of bytes written to this memory
system.ruby.phys_mem.num_reads::cpu.inst       982904                       # Number of read requests responded to by this memory
system.ruby.phys_mem.num_reads::cpu.data       161256                       # Number of read requests responded to by this memory
system.ruby.phys_mem.num_reads::gpu.shader_cores01.data           24                       # Number of read requests responded to by this memory
system.ruby.phys_mem.num_reads::gpu.shader_cores01.inst            7                       # Number of read requests responded to by this memory
system.ruby.phys_mem.num_reads::gpu.shader_cores02.data          106                       # Number of read requests responded to by this memory
system.ruby.phys_mem.num_reads::gpu.shader_cores02.inst            7                       # Number of read requests responded to by this memory
system.ruby.phys_mem.num_reads::total         1144304                       # Number of read requests responded to by this memory
system.ruby.phys_mem.num_writes::cpu.data       109706                       # Number of write requests responded to by this memory
system.ruby.phys_mem.num_writes::gpu.shader_cores01.data            8                       # Number of write requests responded to by this memory
system.ruby.phys_mem.num_writes::gpu.shader_cores02.data           50                       # Number of write requests responded to by this memory
system.ruby.phys_mem.num_writes::total         109764                       # Number of write requests responded to by this memory
system.ruby.phys_mem.bw_read::cpu.inst     5711119431                       # Total read bandwidth from this memory (bytes/s)
system.ruby.phys_mem.bw_read::cpu.data      728871461                       # Total read bandwidth from this memory (bytes/s)
system.ruby.phys_mem.bw_read::gpu.shader_cores01.data      1324784                       # Total read bandwidth from this memory (bytes/s)
system.ruby.phys_mem.bw_read::gpu.shader_cores01.inst        81346                       # Total read bandwidth from this memory (bytes/s)
system.ruby.phys_mem.bw_read::gpu.shader_cores02.data      5252651                       # Total read bandwidth from this memory (bytes/s)
system.ruby.phys_mem.bw_read::gpu.shader_cores02.inst        81346                       # Total read bandwidth from this memory (bytes/s)
system.ruby.phys_mem.bw_read::total        6446731020                       # Total read bandwidth from this memory (bytes/s)
system.ruby.phys_mem.bw_inst_read::cpu.inst   5711119431                       # Instruction read bandwidth from this memory (bytes/s)
system.ruby.phys_mem.bw_inst_read::gpu.shader_cores01.inst        81346                       # Instruction read bandwidth from this memory (bytes/s)
system.ruby.phys_mem.bw_inst_read::gpu.shader_cores02.inst        81346                       # Instruction read bandwidth from this memory (bytes/s)
system.ruby.phys_mem.bw_inst_read::total   5711282124                       # Instruction read bandwidth from this memory (bytes/s)
system.ruby.phys_mem.bw_write::cpu.data     506243879                       # Write bandwidth from this memory (bytes/s)
system.ruby.phys_mem.bw_write::gpu.shader_cores01.data        46484                       # Write bandwidth from this memory (bytes/s)
system.ruby.phys_mem.bw_write::gpu.shader_cores02.data      1580444                       # Write bandwidth from this memory (bytes/s)
system.ruby.phys_mem.bw_write::total        507870806                       # Write bandwidth from this memory (bytes/s)
system.ruby.phys_mem.bw_total::cpu.inst    5711119431                       # Total bandwidth to/from this memory (bytes/s)
system.ruby.phys_mem.bw_total::cpu.data    1235115339                       # Total bandwidth to/from this memory (bytes/s)
system.ruby.phys_mem.bw_total::gpu.shader_cores01.data      1371267                       # Total bandwidth to/from this memory (bytes/s)
system.ruby.phys_mem.bw_total::gpu.shader_cores01.inst        81346                       # Total bandwidth to/from this memory (bytes/s)
system.ruby.phys_mem.bw_total::gpu.shader_cores02.data      6833095                       # Total bandwidth to/from this memory (bytes/s)
system.ruby.phys_mem.bw_total::gpu.shader_cores02.inst        81346                       # Total bandwidth to/from this memory (bytes/s)
system.ruby.phys_mem.bw_total::total       6954601826                       # Total bandwidth to/from this memory (bytes/s)
system.cpu_voltage_domain.voltage                   1                       # Voltage in Volts
system.cpu_clk_domain.clock                       500                       # Clock period in ticks
system.cpu.apic_clk_domain.clock                 8000                       # Clock period in ticks
system.cpu.workload.num_syscalls                   44                       # Number of system calls
system.cpu.numCycles                          2753657                       # number of cpu cycles simulated
system.cpu.numWorkItemsStarted                      1                       # number of work items this cpu started
system.cpu.numWorkItemsCompleted                    1                       # number of work items this cpu completed
system.cpu.committedInsts                      726381                       # Number of instructions committed
system.cpu.committedOps                       1416905                       # Number of ops (including micro ops) committed
system.cpu.num_int_alu_accesses               1387245                       # Number of integer alu accesses
system.cpu.num_fp_alu_accesses                  42719                       # Number of float alu accesses
system.cpu.num_func_calls                       24163                       # number of times a function call or return occured
system.cpu.num_conditional_control_insts       132156                       # number of instructions that are conditional controls
system.cpu.num_int_insts                      1387245                       # number of integer instructions
system.cpu.num_fp_insts                         42719                       # number of float instructions
system.cpu.num_int_register_reads             2611217                       # number of times the integer registers were read
system.cpu.num_int_register_writes            1100640                       # number of times the integer registers were written
system.cpu.num_fp_register_reads                62898                       # number of times the floating registers were read
system.cpu.num_fp_register_writes               30551                       # number of times the floating registers were written
system.cpu.num_cc_register_reads               892460                       # number of times the CC registers were read
system.cpu.num_cc_register_writes              451741                       # number of times the CC registers were written
system.cpu.num_mem_refs                        270941                       # number of memory refs
system.cpu.num_load_insts                      161245                       # Number of load instructions
system.cpu.num_store_insts                     109696                       # Number of store instructions
system.cpu.num_idle_cycles                1509.385999                       # Number of idle cycles
system.cpu.num_busy_cycles               2752147.614001                       # Number of busy cycles
system.cpu.not_idle_fraction                 0.999452                       # Percentage of non-idle cycles
system.cpu.idle_fraction                     0.000548                       # Percentage of idle cycles
system.cpu.Branches                            176122                       # Number of branches fetched
system.cpu.op_class::No_OpClass                  5948      0.42%      0.42% # Class of executed instruction
system.cpu.op_class::IntAlu                   1109183     78.28%     78.70% # Class of executed instruction
system.cpu.op_class::IntMult                     3320      0.23%     78.94% # Class of executed instruction
system.cpu.op_class::IntDiv                       128      0.01%     78.95% # Class of executed instruction
system.cpu.op_class::FloatAdd                   27385      1.93%     80.88% # Class of executed instruction
system.cpu.op_class::FloatCmp                       0      0.00%     80.88% # Class of executed instruction
system.cpu.op_class::FloatCvt                       0      0.00%     80.88% # Class of executed instruction
system.cpu.op_class::FloatMult                      0      0.00%     80.88% # Class of executed instruction
system.cpu.op_class::FloatDiv                       0      0.00%     80.88% # Class of executed instruction
system.cpu.op_class::FloatSqrt                      0      0.00%     80.88% # Class of executed instruction
system.cpu.op_class::SimdAdd                        0      0.00%     80.88% # Class of executed instruction
system.cpu.op_class::SimdAddAcc                     0      0.00%     80.88% # Class of executed instruction
system.cpu.op_class::SimdAlu                        0      0.00%     80.88% # Class of executed instruction
system.cpu.op_class::SimdCmp                        0      0.00%     80.88% # Class of executed instruction
system.cpu.op_class::SimdCvt                        0      0.00%     80.88% # Class of executed instruction
system.cpu.op_class::SimdMisc                       0      0.00%     80.88% # Class of executed instruction
system.cpu.op_class::SimdMult                       0      0.00%     80.88% # Class of executed instruction
system.cpu.op_class::SimdMultAcc                    0      0.00%     80.88% # Class of executed instruction
system.cpu.op_class::SimdShift                      0      0.00%     80.88% # Class of executed instruction
system.cpu.op_class::SimdShiftAcc                   0      0.00%     80.88% # Class of executed instruction
system.cpu.op_class::SimdSqrt                       0      0.00%     80.88% # Class of executed instruction
system.cpu.op_class::SimdFloatAdd                   0      0.00%     80.88% # Class of executed instruction
system.cpu.op_class::SimdFloatAlu                   0      0.00%     80.88% # Class of executed instruction
system.cpu.op_class::SimdFloatCmp                   0      0.00%     80.88% # Class of executed instruction
system.cpu.op_class::SimdFloatCvt                   0      0.00%     80.88% # Class of executed instruction
system.cpu.op_class::SimdFloatDiv                   0      0.00%     80.88% # Class of executed instruction
system.cpu.op_class::SimdFloatMisc                  0      0.00%     80.88% # Class of executed instruction
system.cpu.op_class::SimdFloatMult                  0      0.00%     80.88% # Class of executed instruction
system.cpu.op_class::SimdFloatMultAcc               0      0.00%     80.88% # Class of executed instruction
system.cpu.op_class::SimdFloatSqrt                  0      0.00%     80.88% # Class of executed instruction
system.cpu.op_class::MemRead                   161245     11.38%     92.26% # Class of executed instruction
system.cpu.op_class::MemWrite                  109696      7.74%    100.00% # Class of executed instruction
system.cpu.op_class::IprAccess                      0      0.00%    100.00% # Class of executed instruction
system.cpu.op_class::InstPrefetch                   0      0.00%    100.00% # Class of executed instruction
system.cpu.op_class::total                    1416905                       # Class of executed instruction
system.gpu.clk_domain.voltage_domain.voltage            1                       # Voltage in Volts
system.gpu.clk_domain.clock                      1429                       # Clock period in ticks
system.gpu.dram_wrapper.clk_domain.clock          541                       # Clock period in ticks
system.gpu.icnt_wrapper.clk_domain.clock         2858                       # Clock period in ticks
system.ruby.delayHist::bucket_size                  8                       # delay histogram for all message
system.ruby.delayHist::max_bucket                  79                       # delay histogram for all message
system.ruby.delayHist::samples                   6698                       # delay histogram for all message
system.ruby.delayHist::mean                  0.103016                       # delay histogram for all message
system.ruby.delayHist::stdev                 1.997345                       # delay histogram for all message
system.ruby.delayHist                    |        6675     99.66%     99.66% |           5      0.07%     99.73% |           6      0.09%     99.82% |           1      0.01%     99.84% |           4      0.06%     99.90% |           2      0.03%     99.93% |           1      0.01%     99.94% |           4      0.06%    100.00% |           0      0.00%    100.00% |           0      0.00%    100.00% # delay histogram for all message
system.ruby.delayHist::total                     6698                       # delay histogram for all message
system.ruby.outstanding_req_hist::bucket_size            1                      
system.ruby.outstanding_req_hist::max_bucket            9                      
system.ruby.outstanding_req_hist::samples      1254068                      
system.ruby.outstanding_req_hist::mean       1.000199                      
system.ruby.outstanding_req_hist::gmean      1.000086                      
system.ruby.outstanding_req_hist::stdev      0.029737                      
system.ruby.outstanding_req_hist         |           0      0.00%      0.00% |     1253971     99.99%     99.99% |          54      0.00%    100.00% |          10      0.00%    100.00% |           6      0.00%    100.00% |           6      0.00%    100.00% |           5      0.00%    100.00% |           8      0.00%    100.00% |           4      0.00%    100.00% |           4      0.00%    100.00%
system.ruby.outstanding_req_hist::total       1254068                      
system.ruby.latency_hist::bucket_size             128                      
system.ruby.latency_hist::max_bucket             1279                      
system.ruby.latency_hist::samples             1254068                      
system.ruby.latency_hist::mean               1.198056                      
system.ruby.latency_hist::gmean              1.011783                      
system.ruby.latency_hist::stdev              4.767496                      
system.ruby.latency_hist                 |     1253684     99.97%     99.97% |         317      0.03%     99.99% |          49      0.00%    100.00% |           7      0.00%    100.00% |           7      0.00%    100.00% |           4      0.00%    100.00% |           0      0.00%    100.00% |           0      0.00%    100.00% |           0      0.00%    100.00% |           0      0.00%    100.00%
system.ruby.latency_hist::total               1254068                      
system.ruby.hit_latency_hist::bucket_size            1                      
system.ruby.hit_latency_hist::max_bucket            9                      
system.ruby.hit_latency_hist::samples         1250480                      
system.ruby.hit_latency_hist::mean                  1                      
system.ruby.hit_latency_hist::gmean                 1                      
system.ruby.hit_latency_hist             |           0      0.00%      0.00% |     1250480    100.00%    100.00% |           0      0.00%    100.00% |           0      0.00%    100.00% |           0      0.00%    100.00% |           0      0.00%    100.00% |           0      0.00%    100.00% |           0      0.00%    100.00% |           0      0.00%    100.00% |           0      0.00%    100.00%
system.ruby.hit_latency_hist::total           1250480                      
system.ruby.miss_latency_hist::bucket_size          128                      
system.ruby.miss_latency_hist::max_bucket         1279                      
system.ruby.miss_latency_hist::samples           3588                      
system.ruby.miss_latency_hist::mean         70.224080                      
system.ruby.miss_latency_hist::gmean        59.990496                      
system.ruby.miss_latency_hist::stdev        56.274314                      
system.ruby.miss_latency_hist            |        3204     89.30%     89.30% |         317      8.84%     98.13% |          49      1.37%     99.50% |           7      0.20%     99.69% |           7      0.20%     99.89% |           4      0.11%    100.00% |           0      0.00%    100.00% |           0      0.00%    100.00% |           0      0.00%    100.00% |           0      0.00%    100.00%
system.ruby.miss_latency_hist::total             3588                      
system.ruby.L1Cache.incomplete_times               51                      
system.ruby.Directory.incomplete_times           3536                      
system.gpu.shader_mmu.numPagefaults                 0                       # Number of Pagefaults
system.gpu.shader_mmu.numPagewalks                 33                       # Number of Pagewalks
system.gpu.shader_mmu.totalRequests                49                       # Total number of requests
system.gpu.shader_mmu.l2hits                        0                       # Hits in the shared L2
system.gpu.shader_mmu.prefetchHits                  0                       # Number of prefetch hits
system.gpu.shader_mmu.numPrefetches                 0                       # Number of prefetchs
system.gpu.shader_mmu.prefetchFaults                0                       # Number of faults caused by prefetches
system.gpu.shader_mmu.pagefaultLatency::samples            0                       # Latency to complete the pagefault
system.gpu.shader_mmu.pagefaultLatency::mean          nan                       # Latency to complete the pagefault
system.gpu.shader_mmu.pagefaultLatency::gmean          nan                       # Latency to complete the pagefault
system.gpu.shader_mmu.pagefaultLatency::stdev          nan                       # Latency to complete the pagefault
system.gpu.shader_mmu.pagefaultLatency::0            0                       # Latency to complete the pagefault
system.gpu.shader_mmu.pagefaultLatency::1            0                       # Latency to complete the pagefault
system.gpu.shader_mmu.pagefaultLatency::2            0                       # Latency to complete the pagefault
system.gpu.shader_mmu.pagefaultLatency::3            0                       # Latency to complete the pagefault
system.gpu.shader_mmu.pagefaultLatency::4            0                       # Latency to complete the pagefault
system.gpu.shader_mmu.pagefaultLatency::5            0                       # Latency to complete the pagefault
system.gpu.shader_mmu.pagefaultLatency::6            0                       # Latency to complete the pagefault
system.gpu.shader_mmu.pagefaultLatency::7            0                       # Latency to complete the pagefault
system.gpu.shader_mmu.pagefaultLatency::8            0                       # Latency to complete the pagefault
system.gpu.shader_mmu.pagefaultLatency::9            0                       # Latency to complete the pagefault
system.gpu.shader_mmu.pagefaultLatency::10            0                       # Latency to complete the pagefault
system.gpu.shader_mmu.pagefaultLatency::11            0                       # Latency to complete the pagefault
system.gpu.shader_mmu.pagefaultLatency::12            0                       # Latency to complete the pagefault
system.gpu.shader_mmu.pagefaultLatency::13            0                       # Latency to complete the pagefault
system.gpu.shader_mmu.pagefaultLatency::14            0                       # Latency to complete the pagefault
system.gpu.shader_mmu.pagefaultLatency::15            0                       # Latency to complete the pagefault
system.gpu.shader_mmu.pagefaultLatency::16            0                       # Latency to complete the pagefault
system.gpu.shader_mmu.pagefaultLatency::17            0                       # Latency to complete the pagefault
system.gpu.shader_mmu.pagefaultLatency::18            0                       # Latency to complete the pagefault
system.gpu.shader_mmu.pagefaultLatency::19            0                       # Latency to complete the pagefault
system.gpu.shader_mmu.pagefaultLatency::20            0                       # Latency to complete the pagefault
system.gpu.shader_mmu.pagefaultLatency::21            0                       # Latency to complete the pagefault
system.gpu.shader_mmu.pagefaultLatency::22            0                       # Latency to complete the pagefault
system.gpu.shader_mmu.pagefaultLatency::23            0                       # Latency to complete the pagefault
system.gpu.shader_mmu.pagefaultLatency::24            0                       # Latency to complete the pagefault
system.gpu.shader_mmu.pagefaultLatency::25            0                       # Latency to complete the pagefault
system.gpu.shader_mmu.pagefaultLatency::26            0                       # Latency to complete the pagefault
system.gpu.shader_mmu.pagefaultLatency::27            0                       # Latency to complete the pagefault
system.gpu.shader_mmu.pagefaultLatency::28            0                       # Latency to complete the pagefault
system.gpu.shader_mmu.pagefaultLatency::29            0                       # Latency to complete the pagefault
system.gpu.shader_mmu.pagefaultLatency::30            0                       # Latency to complete the pagefault
system.gpu.shader_mmu.pagefaultLatency::31            0                       # Latency to complete the pagefault
system.gpu.shader_mmu.pagefaultLatency::total            0                       # Latency to complete the pagefault
system.gpu.shader_mmu.concurrentWalks::samples           33                       # Number of outstanding walks
system.gpu.shader_mmu.concurrentWalks::mean     0.060606                       # Number of outstanding walks
system.gpu.shader_mmu.concurrentWalks::gmean            0                       # Number of outstanding walks
system.gpu.shader_mmu.concurrentWalks::stdev     0.242306                       # Number of outstanding walks
system.gpu.shader_mmu.concurrentWalks::0           31     93.94%     93.94% # Number of outstanding walks
system.gpu.shader_mmu.concurrentWalks::1            2      6.06%    100.00% # Number of outstanding walks
system.gpu.shader_mmu.concurrentWalks::2            0      0.00%    100.00% # Number of outstanding walks
system.gpu.shader_mmu.concurrentWalks::3            0      0.00%    100.00% # Number of outstanding walks
system.gpu.shader_mmu.concurrentWalks::4            0      0.00%    100.00% # Number of outstanding walks
system.gpu.shader_mmu.concurrentWalks::5            0      0.00%    100.00% # Number of outstanding walks
system.gpu.shader_mmu.concurrentWalks::6            0      0.00%    100.00% # Number of outstanding walks
system.gpu.shader_mmu.concurrentWalks::7            0      0.00%    100.00% # Number of outstanding walks
system.gpu.shader_mmu.concurrentWalks::8            0      0.00%    100.00% # Number of outstanding walks
system.gpu.shader_mmu.concurrentWalks::9            0      0.00%    100.00% # Number of outstanding walks
system.gpu.shader_mmu.concurrentWalks::10            0      0.00%    100.00% # Number of outstanding walks
system.gpu.shader_mmu.concurrentWalks::11            0      0.00%    100.00% # Number of outstanding walks
system.gpu.shader_mmu.concurrentWalks::12            0      0.00%    100.00% # Number of outstanding walks
system.gpu.shader_mmu.concurrentWalks::13            0      0.00%    100.00% # Number of outstanding walks
system.gpu.shader_mmu.concurrentWalks::14            0      0.00%    100.00% # Number of outstanding walks
system.gpu.shader_mmu.concurrentWalks::15            0      0.00%    100.00% # Number of outstanding walks
system.gpu.shader_mmu.concurrentWalks::total           33                       # Number of outstanding walks
system.gpu.shader_mmu.pagewalkLatency::samples           33                       # Latency to complete the pagewalk
system.gpu.shader_mmu.pagewalkLatency::mean            0                       # Latency to complete the pagewalk
system.gpu.shader_mmu.pagewalkLatency::gmean            0                       # Latency to complete the pagewalk
system.gpu.shader_mmu.pagewalkLatency::stdev            0                       # Latency to complete the pagewalk
system.gpu.shader_mmu.pagewalkLatency::0           33    100.00%    100.00% # Latency to complete the pagewalk
system.gpu.shader_mmu.pagewalkLatency::1            0      0.00%    100.00% # Latency to complete the pagewalk
system.gpu.shader_mmu.pagewalkLatency::2            0      0.00%    100.00% # Latency to complete the pagewalk
system.gpu.shader_mmu.pagewalkLatency::3            0      0.00%    100.00% # Latency to complete the pagewalk
system.gpu.shader_mmu.pagewalkLatency::4            0      0.00%    100.00% # Latency to complete the pagewalk
system.gpu.shader_mmu.pagewalkLatency::5            0      0.00%    100.00% # Latency to complete the pagewalk
system.gpu.shader_mmu.pagewalkLatency::6            0      0.00%    100.00% # Latency to complete the pagewalk
system.gpu.shader_mmu.pagewalkLatency::7            0      0.00%    100.00% # Latency to complete the pagewalk
system.gpu.shader_mmu.pagewalkLatency::8            0      0.00%    100.00% # Latency to complete the pagewalk
system.gpu.shader_mmu.pagewalkLatency::9            0      0.00%    100.00% # Latency to complete the pagewalk
system.gpu.shader_mmu.pagewalkLatency::10            0      0.00%    100.00% # Latency to complete the pagewalk
system.gpu.shader_mmu.pagewalkLatency::11            0      0.00%    100.00% # Latency to complete the pagewalk
system.gpu.shader_mmu.pagewalkLatency::12            0      0.00%    100.00% # Latency to complete the pagewalk
system.gpu.shader_mmu.pagewalkLatency::13            0      0.00%    100.00% # Latency to complete the pagewalk
system.gpu.shader_mmu.pagewalkLatency::14            0      0.00%    100.00% # Latency to complete the pagewalk
system.gpu.shader_mmu.pagewalkLatency::15            0      0.00%    100.00% # Latency to complete the pagewalk
system.gpu.shader_mmu.pagewalkLatency::16            0      0.00%    100.00% # Latency to complete the pagewalk
system.gpu.shader_mmu.pagewalkLatency::17            0      0.00%    100.00% # Latency to complete the pagewalk
system.gpu.shader_mmu.pagewalkLatency::18            0      0.00%    100.00% # Latency to complete the pagewalk
system.gpu.shader_mmu.pagewalkLatency::19            0      0.00%    100.00% # Latency to complete the pagewalk
system.gpu.shader_mmu.pagewalkLatency::20            0      0.00%    100.00% # Latency to complete the pagewalk
system.gpu.shader_mmu.pagewalkLatency::21            0      0.00%    100.00% # Latency to complete the pagewalk
system.gpu.shader_mmu.pagewalkLatency::22            0      0.00%    100.00% # Latency to complete the pagewalk
system.gpu.shader_mmu.pagewalkLatency::23            0      0.00%    100.00% # Latency to complete the pagewalk
system.gpu.shader_mmu.pagewalkLatency::24            0      0.00%    100.00% # Latency to complete the pagewalk
system.gpu.shader_mmu.pagewalkLatency::25            0      0.00%    100.00% # Latency to complete the pagewalk
system.gpu.shader_mmu.pagewalkLatency::26            0      0.00%    100.00% # Latency to complete the pagewalk
system.gpu.shader_mmu.pagewalkLatency::27            0      0.00%    100.00% # Latency to complete the pagewalk
system.gpu.shader_mmu.pagewalkLatency::28            0      0.00%    100.00% # Latency to complete the pagewalk
system.gpu.shader_mmu.pagewalkLatency::29            0      0.00%    100.00% # Latency to complete the pagewalk
system.gpu.shader_mmu.pagewalkLatency::30            0      0.00%    100.00% # Latency to complete the pagewalk
system.gpu.shader_mmu.pagewalkLatency::31            0      0.00%    100.00% # Latency to complete the pagewalk
system.gpu.shader_mmu.pagewalkLatency::total           33                       # Latency to complete the pagewalk
system.gpu.kernels_started                          2                       # Number of kernels started
system.gpu.kernels_completed                        2                       # Number of kernels completed
system.gpu.ce.device_dtb.hits                       0                       # Number of hits in this TLB
system.gpu.ce.device_dtb.misses                     0                       # Number of misses in this TLB
system.gpu.ce.device_dtb.hitRate                  nan                       # Hit rate for this TLB
system.gpu.ce.host_dtb.hits                         0                       # Number of hits in this TLB
system.gpu.ce.host_dtb.misses                       0                       # Number of misses in this TLB
system.gpu.ce.host_dtb.hitRate                    nan                       # Hit rate for this TLB
system.gpu.ce.numOperations                         0                       # Number of copy/memset operations
system.gpu.ce.opBytesRead                           0                       # Number of copy bytes read
system.gpu.ce.opBytesWritten                        0                       # Number of copy/memset bytes written
system.gpu.ce.opTimeTicks                           0                       # Total time spent in copy/memset operations
system.gpu.shader_cores00.itb.hits                  0                       # Number of hits in this TLB
system.gpu.shader_cores00.itb.misses                0                       # Number of misses in this TLB
system.gpu.shader_cores00.itb.hitRate             nan                       # Hit rate for this TLB
system.gpu.shader_cores00.local_loads               0                       # Number of loads from local space
system.gpu.shader_cores00.local_stores              0                       # Number of stores to local space
system.gpu.shader_cores00.shared_loads              0                       # Number of loads from shared space
system.gpu.shader_cores00.shared_stores             0                       # Number of stores to shared space
system.gpu.shader_cores00.param_kernel_loads            0                       # Number of loads from kernel parameter space
system.gpu.shader_cores00.param_local_loads            0                       # Number of loads from local parameter space
system.gpu.shader_cores00.param_local_stores            0                       # Number of stores to local parameter space
system.gpu.shader_cores00.const_loads               0                       # Number of loads from constant space
system.gpu.shader_cores00.tex_loads                 0                       # Number of loads from texture space
system.gpu.shader_cores00.global_loads              0                       # Number of loads from global space
system.gpu.shader_cores00.global_stores             0                       # Number of stores to global space
system.gpu.shader_cores00.surf_loads                0                       # Number of loads from surface space
system.gpu.shader_cores00.generic_loads             0                       # Number of loads from generic spaces (global, shared, local)
system.gpu.shader_cores00.generic_stores            0                       # Number of stores to generic spaces (global, shared, local)
system.gpu.shader_cores00.inst_cache_requests            0                       # Number of instruction cache requests sent
system.gpu.shader_cores00.inst_cache_retries            0                       # Number of instruction cache retries
system.gpu.shader_cores00.inst_counts::0            0                       # Inst counts: 1: ALU, 2: MAD, 3: CTRL, 4: SFU, 5: MEM, 6: TEX, 7: NOP
system.gpu.shader_cores00.inst_counts::1            0                       # Inst counts: 1: ALU, 2: MAD, 3: CTRL, 4: SFU, 5: MEM, 6: TEX, 7: NOP
system.gpu.shader_cores00.inst_counts::2            0                       # Inst counts: 1: ALU, 2: MAD, 3: CTRL, 4: SFU, 5: MEM, 6: TEX, 7: NOP
system.gpu.shader_cores00.inst_counts::3            0                       # Inst counts: 1: ALU, 2: MAD, 3: CTRL, 4: SFU, 5: MEM, 6: TEX, 7: NOP
system.gpu.shader_cores00.inst_counts::4            0                       # Inst counts: 1: ALU, 2: MAD, 3: CTRL, 4: SFU, 5: MEM, 6: TEX, 7: NOP
system.gpu.shader_cores00.inst_counts::5            0                       # Inst counts: 1: ALU, 2: MAD, 3: CTRL, 4: SFU, 5: MEM, 6: TEX, 7: NOP
system.gpu.shader_cores00.inst_counts::6            0                       # Inst counts: 1: ALU, 2: MAD, 3: CTRL, 4: SFU, 5: MEM, 6: TEX, 7: NOP
system.gpu.shader_cores00.inst_counts::7            0                       # Inst counts: 1: ALU, 2: MAD, 3: CTRL, 4: SFU, 5: MEM, 6: TEX, 7: NOP
system.gpu.shader_cores00.activeCycles              0                       # Number of cycles this shader was executing a CTA
system.gpu.shader_cores00.notStalledCycles            0                       # Number of cycles this shader was actually executing at least one instance
system.gpu.shader_cores00.instInstances             0                       # Total instructions executed by all PEs in the core
system.gpu.shader_cores00.instPerCycle            nan                       # Instruction instances per cycle
system.gpu.shader_cores00.kernels_completed            0                       # Number of kernels completed
system.gpu.shader_cores00.lsq.data_tlb.hits            0                       # Number of hits in this TLB
system.gpu.shader_cores00.lsq.data_tlb.misses            0                       # Number of misses in this TLB
system.gpu.shader_cores00.lsq.data_tlb.hitRate          nan                       # Hit rate for this TLB
system.gpu.shader_cores00.lsq.warpInstBufActive::samples            0                       # Histogram of number of active warp inst buffers at a given time
system.gpu.shader_cores00.lsq.warpInstBufActive::mean          nan                       # Histogram of number of active warp inst buffers at a given time
system.gpu.shader_cores00.lsq.warpInstBufActive::gmean          nan                       # Histogram of number of active warp inst buffers at a given time
system.gpu.shader_cores00.lsq.warpInstBufActive::stdev          nan                       # Histogram of number of active warp inst buffers at a given time
system.gpu.shader_cores00.lsq.warpInstBufActive::0            0                       # Histogram of number of active warp inst buffers at a given time
system.gpu.shader_cores00.lsq.warpInstBufActive::1            0                       # Histogram of number of active warp inst buffers at a given time
system.gpu.shader_cores00.lsq.warpInstBufActive::2            0                       # Histogram of number of active warp inst buffers at a given time
system.gpu.shader_cores00.lsq.warpInstBufActive::3            0                       # Histogram of number of active warp inst buffers at a given time
system.gpu.shader_cores00.lsq.warpInstBufActive::4            0                       # Histogram of number of active warp inst buffers at a given time
system.gpu.shader_cores00.lsq.warpInstBufActive::5            0                       # Histogram of number of active warp inst buffers at a given time
system.gpu.shader_cores00.lsq.warpInstBufActive::6            0                       # Histogram of number of active warp inst buffers at a given time
system.gpu.shader_cores00.lsq.warpInstBufActive::7            0                       # Histogram of number of active warp inst buffers at a given time
system.gpu.shader_cores00.lsq.warpInstBufActive::8            0                       # Histogram of number of active warp inst buffers at a given time
system.gpu.shader_cores00.lsq.warpInstBufActive::9            0                       # Histogram of number of active warp inst buffers at a given time
system.gpu.shader_cores00.lsq.warpInstBufActive::10            0                       # Histogram of number of active warp inst buffers at a given time
system.gpu.shader_cores00.lsq.warpInstBufActive::11            0                       # Histogram of number of active warp inst buffers at a given time
system.gpu.shader_cores00.lsq.warpInstBufActive::12            0                       # Histogram of number of active warp inst buffers at a given time
system.gpu.shader_cores00.lsq.warpInstBufActive::13            0                       # Histogram of number of active warp inst buffers at a given time
system.gpu.shader_cores00.lsq.warpInstBufActive::14            0                       # Histogram of number of active warp inst buffers at a given time
system.gpu.shader_cores00.lsq.warpInstBufActive::15            0                       # Histogram of number of active warp inst buffers at a given time
system.gpu.shader_cores00.lsq.warpInstBufActive::16            0                       # Histogram of number of active warp inst buffers at a given time
system.gpu.shader_cores00.lsq.warpInstBufActive::17            0                       # Histogram of number of active warp inst buffers at a given time
system.gpu.shader_cores00.lsq.warpInstBufActive::18            0                       # Histogram of number of active warp inst buffers at a given time
system.gpu.shader_cores00.lsq.warpInstBufActive::19            0                       # Histogram of number of active warp inst buffers at a given time
system.gpu.shader_cores00.lsq.warpInstBufActive::20            0                       # Histogram of number of active warp inst buffers at a given time
system.gpu.shader_cores00.lsq.warpInstBufActive::21            0                       # Histogram of number of active warp inst buffers at a given time
system.gpu.shader_cores00.lsq.warpInstBufActive::22            0                       # Histogram of number of active warp inst buffers at a given time
system.gpu.shader_cores00.lsq.warpInstBufActive::23            0                       # Histogram of number of active warp inst buffers at a given time
system.gpu.shader_cores00.lsq.warpInstBufActive::24            0                       # Histogram of number of active warp inst buffers at a given time
system.gpu.shader_cores00.lsq.warpInstBufActive::25            0                       # Histogram of number of active warp inst buffers at a given time
system.gpu.shader_cores00.lsq.warpInstBufActive::26            0                       # Histogram of number of active warp inst buffers at a given time
system.gpu.shader_cores00.lsq.warpInstBufActive::27            0                       # Histogram of number of active warp inst buffers at a given time
system.gpu.shader_cores00.lsq.warpInstBufActive::28            0                       # Histogram of number of active warp inst buffers at a given time
system.gpu.shader_cores00.lsq.warpInstBufActive::29            0                       # Histogram of number of active warp inst buffers at a given time
system.gpu.shader_cores00.lsq.warpInstBufActive::30            0                       # Histogram of number of active warp inst buffers at a given time
system.gpu.shader_cores00.lsq.warpInstBufActive::31            0                       # Histogram of number of active warp inst buffers at a given time
system.gpu.shader_cores00.lsq.warpInstBufActive::32            0                       # Histogram of number of active warp inst buffers at a given time
system.gpu.shader_cores00.lsq.warpInstBufActive::33            0                       # Histogram of number of active warp inst buffers at a given time
system.gpu.shader_cores00.lsq.warpInstBufActive::34            0                       # Histogram of number of active warp inst buffers at a given time
system.gpu.shader_cores00.lsq.warpInstBufActive::35            0                       # Histogram of number of active warp inst buffers at a given time
system.gpu.shader_cores00.lsq.warpInstBufActive::36            0                       # Histogram of number of active warp inst buffers at a given time
system.gpu.shader_cores00.lsq.warpInstBufActive::37            0                       # Histogram of number of active warp inst buffers at a given time
system.gpu.shader_cores00.lsq.warpInstBufActive::38            0                       # Histogram of number of active warp inst buffers at a given time
system.gpu.shader_cores00.lsq.warpInstBufActive::39            0                       # Histogram of number of active warp inst buffers at a given time
system.gpu.shader_cores00.lsq.warpInstBufActive::40            0                       # Histogram of number of active warp inst buffers at a given time
system.gpu.shader_cores00.lsq.warpInstBufActive::41            0                       # Histogram of number of active warp inst buffers at a given time
system.gpu.shader_cores00.lsq.warpInstBufActive::42            0                       # Histogram of number of active warp inst buffers at a given time
system.gpu.shader_cores00.lsq.warpInstBufActive::43            0                       # Histogram of number of active warp inst buffers at a given time
system.gpu.shader_cores00.lsq.warpInstBufActive::44            0                       # Histogram of number of active warp inst buffers at a given time
system.gpu.shader_cores00.lsq.warpInstBufActive::45            0                       # Histogram of number of active warp inst buffers at a given time
system.gpu.shader_cores00.lsq.warpInstBufActive::46            0                       # Histogram of number of active warp inst buffers at a given time
system.gpu.shader_cores00.lsq.warpInstBufActive::47            0                       # Histogram of number of active warp inst buffers at a given time
system.gpu.shader_cores00.lsq.warpInstBufActive::48            0                       # Histogram of number of active warp inst buffers at a given time
system.gpu.shader_cores00.lsq.warpInstBufActive::49            0                       # Histogram of number of active warp inst buffers at a given time
system.gpu.shader_cores00.lsq.warpInstBufActive::50            0                       # Histogram of number of active warp inst buffers at a given time
system.gpu.shader_cores00.lsq.warpInstBufActive::51            0                       # Histogram of number of active warp inst buffers at a given time
system.gpu.shader_cores00.lsq.warpInstBufActive::52            0                       # Histogram of number of active warp inst buffers at a given time
system.gpu.shader_cores00.lsq.warpInstBufActive::53            0                       # Histogram of number of active warp inst buffers at a given time
system.gpu.shader_cores00.lsq.warpInstBufActive::54            0                       # Histogram of number of active warp inst buffers at a given time
system.gpu.shader_cores00.lsq.warpInstBufActive::55            0                       # Histogram of number of active warp inst buffers at a given time
system.gpu.shader_cores00.lsq.warpInstBufActive::56            0                       # Histogram of number of active warp inst buffers at a given time
system.gpu.shader_cores00.lsq.warpInstBufActive::57            0                       # Histogram of number of active warp inst buffers at a given time
system.gpu.shader_cores00.lsq.warpInstBufActive::58            0                       # Histogram of number of active warp inst buffers at a given time
system.gpu.shader_cores00.lsq.warpInstBufActive::59            0                       # Histogram of number of active warp inst buffers at a given time
system.gpu.shader_cores00.lsq.warpInstBufActive::60            0                       # Histogram of number of active warp inst buffers at a given time
system.gpu.shader_cores00.lsq.warpInstBufActive::61            0                       # Histogram of number of active warp inst buffers at a given time
system.gpu.shader_cores00.lsq.warpInstBufActive::62            0                       # Histogram of number of active warp inst buffers at a given time
system.gpu.shader_cores00.lsq.warpInstBufActive::63            0                       # Histogram of number of active warp inst buffers at a given time
system.gpu.shader_cores00.lsq.warpInstBufActive::64            0                       # Histogram of number of active warp inst buffers at a given time
system.gpu.shader_cores00.lsq.warpInstBufActive::total            0                       # Histogram of number of active warp inst buffers at a given time
system.gpu.shader_cores00.lsq.cacheAccesses            0                       # Average number of concurrent outstanding cache accesses
system.gpu.shader_cores00.lsq.writebackBlockedCycles            0                       # Number of cycles blocked for core writeback stage
system.gpu.shader_cores00.lsq.mshrHitQueued            0                       # Number of hits on blocked lines in MSHRs
system.gpu.shader_cores00.lsq.mshrsFullCycles            0                       # Number of cycles stalled waiting for an MSHR
system.gpu.shader_cores00.lsq.mshrsFullCount            0                       # Number of times MSHRs filled
system.gpu.shader_cores00.lsq.warpCoalescedAccesses::samples            0                       # Number of coalesced accesses per warp instruction
system.gpu.shader_cores00.lsq.warpCoalescedAccesses::mean          nan                       # Number of coalesced accesses per warp instruction
system.gpu.shader_cores00.lsq.warpCoalescedAccesses::gmean          nan                       # Number of coalesced accesses per warp instruction
system.gpu.shader_cores00.lsq.warpCoalescedAccesses::stdev          nan                       # Number of coalesced accesses per warp instruction
[...]
system.ruby.ST.Directory.miss_type_mach_latency_hist::stdev    77.859710                      
system.ruby.ST.Directory.miss_type_mach_latency_hist |          95     55.56%     55.56% |          63     36.84%     92.40% |           8      4.68%     97.08% |           3      1.75%     98.83% |           1      0.58%     99.42% |           1      0.58%    100.00% |           0      0.00%    100.00% |           0      0.00%    100.00% |           0      0.00%    100.00% |           0      0.00%    100.00%
system.ruby.ST.Directory.miss_type_mach_latency_hist::total          171                      
system.ruby.IFETCH.L1Cache.miss_type_mach_latency_hist::bucket_size            8                      
system.ruby.IFETCH.L1Cache.miss_type_mach_latency_hist::max_bucket           79                      
system.ruby.IFETCH.L1Cache.miss_type_mach_latency_hist::samples            2                      
system.ruby.IFETCH.L1Cache.miss_type_mach_latency_hist::mean           45                      
system.ruby.IFETCH.L1Cache.miss_type_mach_latency_hist::gmean    45.000000                      
system.ruby.IFETCH.L1Cache.miss_type_mach_latency_hist |           0      0.00%      0.00% |           0      0.00%      0.00% |           0      0.00%      0.00% |           0      0.00%      0.00% |           0      0.00%      0.00% |           2    100.00%    100.00% |           0      0.00%    100.00% |           0      0.00%    100.00% |           0      0.00%    100.00% |           0      0.00%    100.00%
system.ruby.IFETCH.L1Cache.miss_type_mach_latency_hist::total            2                      
system.ruby.IFETCH.Directory.miss_type_mach_latency_hist::bucket_size          128                      
system.ruby.IFETCH.Directory.miss_type_mach_latency_hist::max_bucket         1279                      
system.ruby.IFETCH.Directory.miss_type_mach_latency_hist::samples         2556                      
system.ruby.IFETCH.Directory.miss_type_mach_latency_hist::mean    67.639671                      
system.ruby.IFETCH.Directory.miss_type_mach_latency_hist::gmean    58.404797                      
system.ruby.IFETCH.Directory.miss_type_mach_latency_hist::stdev    53.323380                      
system.ruby.IFETCH.Directory.miss_type_mach_latency_hist |        2337     91.43%     91.43% |         174      6.81%     98.24% |          36      1.41%     99.65% |           2      0.08%     99.73% |           5      0.20%     99.92% |           2      0.08%    100.00% |           0      0.00%    100.00% |           0      0.00%    100.00% |           0      0.00%    100.00% |           0      0.00%    100.00%
system.ruby.IFETCH.Directory.miss_type_mach_latency_hist::total         2556                      
system.ruby.RMW_Read.Directory.miss_type_mach_latency_hist::bucket_size           16                      
system.ruby.RMW_Read.Directory.miss_type_mach_latency_hist::max_bucket          159                      
system.ruby.RMW_Read.Directory.miss_type_mach_latency_hist::samples            1                      
system.ruby.RMW_Read.Directory.miss_type_mach_latency_hist::mean          133                      
system.ruby.RMW_Read.Directory.miss_type_mach_latency_hist::gmean          133                      
system.ruby.RMW_Read.Directory.miss_type_mach_latency_hist::stdev          nan                      
system.ruby.RMW_Read.Directory.miss_type_mach_latency_hist |           0      0.00%      0.00% |           0      0.00%      0.00% |           0      0.00%      0.00% |           0      0.00%      0.00% |           0      0.00%      0.00% |           0      0.00%      0.00% |           0      0.00%      0.00% |           0      0.00%      0.00% |           1    100.00%    100.00% |           0      0.00%    100.00%
system.ruby.RMW_Read.Directory.miss_type_mach_latency_hist::total            1                      
system.ruby.Directory_Controller.GETX            3588      0.00%      0.00%
system.ruby.Directory_Controller.PUTX            3059      0.00%      0.00%
system.ruby.Directory_Controller.Memory_Data         3537      0.00%      0.00%
system.ruby.Directory_Controller.Memory_Ack         3059      0.00%      0.00%
system.ruby.Directory_Controller.I.GETX          3537      0.00%      0.00%
system.ruby.Directory_Controller.M.GETX            51      0.00%      0.00%
system.ruby.Directory_Controller.M.PUTX          3059      0.00%      0.00%
system.ruby.Directory_Controller.IM.Memory_Data         3537      0.00%      0.00%
system.ruby.Directory_Controller.MI.Memory_Ack         3059      0.00%      0.00%
system.ruby.L1Cache_Controller.Load      |      156994     99.92%     99.92% |           0      0.00%     99.92% |          24      0.02%     99.93% |         106      0.07%    100.00% |           0      0.00%    100.00% |           0      0.00%    100.00% |           0      0.00%    100.00% |           0      0.00%    100.00% |           0      0.00%    100.00% |           0      0.00%    100.00% |           0      0.00%    100.00% |           0      0.00%    100.00% |           0      0.00%    100.00% |           0      0.00%    100.00% |           0      0.00%    100.00% |           0      0.00%    100.00% |           0      0.00%    100.00% |           0      0.00%    100.00% |           0      0.00%    100.00%
system.ruby.L1Cache_Controller.Load::total       157124                      
system.ruby.L1Cache_Controller.Ifetch    |      982904    100.00%    100.00% |           0      0.00%    100.00% |           7      0.00%    100.00% |           7      0.00%    100.00% |           0      0.00%    100.00% |           0      0.00%    100.00% |           0      0.00%    100.00% |           0      0.00%    100.00% |           0      0.00%    100.00% |           0      0.00%    100.00% |           0      0.00%    100.00% |           0      0.00%    100.00% |           0      0.00%    100.00% |           0      0.00%    100.00% |           0      0.00%    100.00% |           0      0.00%    100.00% |           0      0.00%    100.00% |           0      0.00%    100.00% |           0      0.00%    100.00%
system.ruby.L1Cache_Controller.Ifetch::total       982918                      
system.ruby.L1Cache_Controller.Store     |      113968     99.95%     99.95% |           0      0.00%     99.95% |           8      0.01%     99.96% |          50      0.04%    100.00% |           0      0.00%    100.00% |           0      0.00%    100.00% |           0      0.00%    100.00% |           0      0.00%    100.00% |           0      0.00%    100.00% |           0      0.00%    100.00% |           0      0.00%    100.00% |           0      0.00%    100.00% |           0      0.00%    100.00% |           0      0.00%    100.00% |           0      0.00%    100.00% |           0      0.00%    100.00% |           0      0.00%    100.00% |           0      0.00%    100.00% |           0      0.00%    100.00%
system.ruby.L1Cache_Controller.Store::total       114026                      
system.ruby.L1Cache_Controller.Data      |        3541     98.69%     98.69% |           0      0.00%     98.69% |          18      0.50%     99.19% |          29      0.81%    100.00% |           0      0.00%    100.00% |           0      0.00%    100.00% |           0      0.00%    100.00% |           0      0.00%    100.00% |           0      0.00%    100.00% |           0      0.00%    100.00% |           0      0.00%    100.00% |           0      0.00%    100.00% |           0      0.00%    100.00% |           0      0.00%    100.00% |           0      0.00%    100.00% |           0      0.00%    100.00% |           0      0.00%    100.00% |           0      0.00%    100.00% |           0      0.00%    100.00%
system.ruby.L1Cache_Controller.Data::total         3588                      
system.ruby.L1Cache_Controller.Fwd_GETX  |          25     49.02%     49.02% |           0      0.00%     49.02% |          12     23.53%     72.55% |          14     27.45%    100.00% |           0      0.00%    100.00% |           0      0.00%    100.00% |           0      0.00%    100.00% |           0      0.00%    100.00% |           0      0.00%    100.00% |           0      0.00%    100.00% |           0      0.00%    100.00% |           0      0.00%    100.00% |           0      0.00%    100.00% |           0      0.00%    100.00% |           0      0.00%    100.00% |           0      0.00%    100.00% |           0      0.00%    100.00% |           0      0.00%    100.00% |           0      0.00%    100.00%
system.ruby.L1Cache_Controller.Fwd_GETX::total           51                      
system.ruby.L1Cache_Controller.Replacement |        3060    100.00%    100.00% |           0      0.00%    100.00% |           0      0.00%    100.00% |           0      0.00%    100.00% |           0      0.00%    100.00% |           0      0.00%    100.00% |           0      0.00%    100.00% |           0      0.00%    100.00% |           0      0.00%    100.00% |           0      0.00%    100.00% |           0      0.00%    100.00% |           0      0.00%    100.00% |           0      0.00%    100.00% |           0      0.00%    100.00% |           0      0.00%    100.00% |           0      0.00%    100.00% |           0      0.00%    100.00% |           0      0.00%    100.00% |           0      0.00%    100.00%
system.ruby.L1Cache_Controller.Replacement::total         3060                      
system.ruby.L1Cache_Controller.Writeback_Ack |        3059    100.00%    100.00% |           0      0.00%    100.00% |           0      0.00%    100.00% |           0      0.00%    100.00% |           0      0.00%    100.00% |           0      0.00%    100.00% |           0      0.00%    100.00% |           0      0.00%    100.00% |           0      0.00%    100.00% |           0      0.00%    100.00% |           0      0.00%    100.00% |           0      0.00%    100.00% |           0      0.00%    100.00% |           0      0.00%    100.00% |           0      0.00%    100.00% |           0      0.00%    100.00% |           0      0.00%    100.00% |           0      0.00%    100.00% |           0      0.00%    100.00%
system.ruby.L1Cache_Controller.Writeback_Ack::total         3059                      
system.ruby.L1Cache_Controller.I.Load    |         825     96.27%     96.27% |           0      0.00%     96.27% |          10      1.17%     97.43% |          22      2.57%    100.00% |           0      0.00%    100.00% |           0      0.00%    100.00% |           0      0.00%    100.00% |           0      0.00%    100.00% |           0      0.00%    100.00% |           0      0.00%    100.00% |           0      0.00%    100.00% |           0      0.00%    100.00% |           0      0.00%    100.00% |           0      0.00%    100.00% |           0      0.00%    100.00% |           0      0.00%    100.00% |           0      0.00%    100.00% |           0      0.00%    100.00% |           0      0.00%    100.00%
system.ruby.L1Cache_Controller.I.Load::total          857                      
system.ruby.L1Cache_Controller.I.Ifetch  |        2544     99.45%     99.45% |           0      0.00%     99.45% |           7      0.27%     99.73% |           7      0.27%    100.00% |           0      0.00%    100.00% |           0      0.00%    100.00% |           0      0.00%    100.00% |           0      0.00%    100.00% |           0      0.00%    100.00% |           0      0.00%    100.00% |           0      0.00%    100.00% |           0      0.00%    100.00% |           0      0.00%    100.00% |           0      0.00%    100.00% |           0      0.00%    100.00% |           0      0.00%    100.00% |           0      0.00%    100.00% |           0      0.00%    100.00% |           0      0.00%    100.00%
system.ruby.L1Cache_Controller.I.Ifetch::total         2558                      
system.ruby.L1Cache_Controller.I.Store   |         172     99.42%     99.42% |           0      0.00%     99.42% |           1      0.58%    100.00% |           0      0.00%    100.00% |           0      0.00%    100.00% |           0      0.00%    100.00% |           0      0.00%    100.00% |           0      0.00%    100.00% |           0      0.00%    100.00% |           0      0.00%    100.00% |           0      0.00%    100.00% |           0      0.00%    100.00% |           0      0.00%    100.00% |           0      0.00%    100.00% |           0      0.00%    100.00% |           0      0.00%    100.00% |           0      0.00%    100.00% |           0      0.00%    100.00% |           0      0.00%    100.00%
system.ruby.L1Cache_Controller.I.Store::total          173                      
system.ruby.L1Cache_Controller.I.Replacement |           1    100.00%    100.00% |           0      0.00%    100.00% |           0      0.00%    100.00% |           0      0.00%    100.00% |           0      0.00%    100.00% |           0      0.00%    100.00% |           0      0.00%    100.00% |           0      0.00%    100.00% |           0      0.00%    100.00% |           0      0.00%    100.00% |           0      0.00%    100.00% |           0      0.00%    100.00% |           0      0.00%    100.00% |           0      0.00%    100.00% |           0      0.00%    100.00% |           0      0.00%    100.00% |           0      0.00%    100.00% |           0      0.00%    100.00% |           0      0.00%    100.00%
system.ruby.L1Cache_Controller.I.Replacement::total            1                      
system.ruby.L1Cache_Controller.M.Load    |      156169     99.94%     99.94% |           0      0.00%     99.94% |          14      0.01%     99.95% |          84      0.05%    100.00% |           0      0.00%    100.00% |           0      0.00%    100.00% |           0      0.00%    100.00% |           0      0.00%    100.00% |           0      0.00%    100.00% |           0      0.00%    100.00% |           0      0.00%    100.00% |           0      0.00%    100.00% |           0      0.00%    100.00% |           0      0.00%    100.00% |           0      0.00%    100.00% |           0      0.00%    100.00% |           0      0.00%    100.00% |           0      0.00%    100.00% |           0      0.00%    100.00%
system.ruby.L1Cache_Controller.M.Load::total       156267                      
system.ruby.L1Cache_Controller.M.Ifetch  |      980360    100.00%    100.00% |           0      0.00%    100.00% |           0      0.00%    100.00% |           0      0.00%    100.00% |           0      0.00%    100.00% |           0      0.00%    100.00% |           0      0.00%    100.00% |           0      0.00%    100.00% |           0      0.00%    100.00% |           0      0.00%    100.00% |           0      0.00%    100.00% |           0      0.00%    100.00% |           0      0.00%    100.00% |           0      0.00%    100.00% |           0      0.00%    100.00% |           0      0.00%    100.00% |           0      0.00%    100.00% |           0      0.00%    100.00% |           0      0.00%    100.00%
system.ruby.L1Cache_Controller.M.Ifetch::total       980360                      
system.ruby.L1Cache_Controller.M.Store   |      113796     99.95%     99.95% |           0      0.00%     99.95% |           7      0.01%     99.96% |          50      0.04%    100.00% |           0      0.00%    100.00% |           0      0.00%    100.00% |           0      0.00%    100.00% |           0      0.00%    100.00% |           0      0.00%    100.00% |           0      0.00%    100.00% |           0      0.00%    100.00% |           0      0.00%    100.00% |           0      0.00%    100.00% |           0      0.00%    100.00% |           0      0.00%    100.00% |           0      0.00%    100.00% |           0      0.00%    100.00% |           0      0.00%    100.00% |           0      0.00%    100.00%
system.ruby.L1Cache_Controller.M.Store::total       113853                      
system.ruby.L1Cache_Controller.M.Fwd_GETX |          25     49.02%     49.02% |           0      0.00%     49.02% |          12     23.53%     72.55% |          14     27.45%    100.00% |           0      0.00%    100.00% |           0      0.00%    100.00% |           0      0.00%    100.00% |           0      0.00%    100.00% |           0      0.00%    100.00% |           0      0.00%    100.00% |           0      0.00%    100.00% |           0      0.00%    100.00% |           0      0.00%    100.00% |           0      0.00%    100.00% |           0      0.00%    100.00% |           0      0.00%    100.00% |           0      0.00%    100.00% |           0      0.00%    100.00% |           0      0.00%    100.00%
system.ruby.L1Cache_Controller.M.Fwd_GETX::total           51                      
system.ruby.L1Cache_Controller.M.Replacement |        3059    100.00%    100.00% |           0      0.00%    100.00% |           0      0.00%    100.00% |           0      0.00%    100.00% |           0      0.00%    100.00% |           0      0.00%    100.00% |           0      0.00%    100.00% |           0      0.00%    100.00% |           0      0.00%    100.00% |           0      0.00%    100.00% |           0      0.00%    100.00% |           0      0.00%    100.00% |           0      0.00%    100.00% |           0      0.00%    100.00% |           0      0.00%    100.00% |           0      0.00%    100.00% |           0      0.00%    100.00% |           0      0.00%    100.00% |           0      0.00%    100.00%
system.ruby.L1Cache_Controller.M.Replacement::total         3059                      
system.ruby.L1Cache_Controller.MI.Writeback_Ack |        3059    100.00%    100.00% |           0      0.00%    100.00% |           0      0.00%    100.00% |           0      0.00%    100.00% |           0      0.00%    100.00% |           0      0.00%    100.00% |           0      0.00%    100.00% |           0      0.00%    100.00% |           0      0.00%    100.00% |           0      0.00%    100.00% |           0      0.00%    100.00% |           0      0.00%    100.00% |           0      0.00%    100.00% |           0      0.00%    100.00% |           0      0.00%    100.00% |           0      0.00%    100.00% |           0      0.00%    100.00% |           0      0.00%    100.00% |           0      0.00%    100.00%
system.ruby.L1Cache_Controller.MI.Writeback_Ack::total         3059                      
system.ruby.L1Cache_Controller.IS.Data   |        3369     98.65%     98.65% |           0      0.00%     98.65% |          17      0.50%     99.15% |          29      0.85%    100.00% |           0      0.00%    100.00% |           0      0.00%    100.00% |           0      0.00%    100.00% |           0      0.00%    100.00% |           0      0.00%    100.00% |           0      0.00%    100.00% |           0      0.00%    100.00% |           0      0.00%    100.00% |           0      0.00%    100.00% |           0      0.00%    100.00% |           0      0.00%    100.00% |           0      0.00%    100.00% |           0      0.00%    100.00% |           0      0.00%    100.00% |           0      0.00%    100.00%
system.ruby.L1Cache_Controller.IS.Data::total         3415                      
system.ruby.L1Cache_Controller.IM.Data   |         172     99.42%     99.42% |           0      0.00%     99.42% |           1      0.58%    100.00% |           0      0.00%    100.00% |           0      0.00%    100.00% |           0      0.00%    100.00% |           0      0.00%    100.00% |           0      0.00%    100.00% |           0      0.00%    100.00% |           0      0.00%    100.00% |           0      0.00%    100.00% |           0      0.00%    100.00% |           0      0.00%    100.00% |           0      0.00%    100.00% |           0      0.00%    100.00% |           0      0.00%    100.00% |           0      0.00%    100.00% |           0      0.00%    100.00% |           0      0.00%    100.00%
system.ruby.L1Cache_Controller.IM.Data::total          173                      

---------- End Simulation Statistics   ----------
